
---------- Begin Simulation Statistics ----------
final_tick                               109759669000                       # Number of ticks from beginning of simulation (restored from checkpoints and never reset)
host_inst_rate                                 364461                       # Simulator instruction rate (inst/s)
host_mem_usage                                 708612                       # Number of bytes of host memory used
host_op_rate                                   397770                       # Simulator op (including micro ops) rate (op/s)
host_seconds                                   274.38                       # Real time elapsed on the host
host_tick_rate                              400030616                       # Simulator tick rate (ticks/s)
sim_freq                                 1000000000000                       # Frequency of simulated ticks
sim_insts                                   100000000                       # Number of instructions simulated
sim_ops                                     109139424                       # Number of ops (including micro ops) simulated
sim_seconds                                  0.109760                       # Number of seconds simulated
sim_ticks                                109759669000                       # Number of ticks simulated
system.cpu.branchPred.BTBCorrect                    0                       # Number of correct BTB predictions (this stat may not work properly.
system.cpu.branchPred.BTBHitPct             92.962392                       # BTB Hit Percentage
system.cpu.branchPred.BTBHits                 8062949                       # Number of BTB hits
system.cpu.branchPred.BTBLookups              8673345                       # Number of BTB lookups
system.cpu.branchPred.RASInCorrect                482                       # Number of incorrect RAS predictions.
system.cpu.branchPred.condIncorrect             88894                       # Number of conditional branches incorrect
system.cpu.branchPred.condPredicted          15819128                       # Number of conditional branches predicted
system.cpu.branchPred.indirectHits             287880                       # Number of indirect target hits.
system.cpu.branchPred.indirectLookups          551197                       # Number of indirect predictor lookups.
system.cpu.branchPred.indirectMisses           263317                       # Number of indirect misses.
system.cpu.branchPred.lookups                19659514                       # Number of BP lookups
system.cpu.branchPred.usedRAS                 1050584                       # Number of times the RAS was used to get a target.
system.cpu.branchPredindirectMispredicted          987                       # Number of mispredicted indirect branches.
system.cpu.committedInsts                   100000000                       # Number of instructions committed
system.cpu.committedOps                     109139424                       # Number of ops (including micro ops) committed
system.cpu.cpi                               1.097597                       # CPI: cycles per instruction
system.cpu.discardedOps                        430564                       # Number of ops (including micro ops) which were discarded before commit
system.cpu.dtb.accesses                             0                       # DTB accesses
system.cpu.dtb.align_faults                         0                       # Number of TLB faults due to alignment restrictions
system.cpu.dtb.domain_faults                        0                       # Number of TLB faults due to domain restrictions
system.cpu.dtb.flush_entries                        0                       # Number of entries that have been flushed from TLB
system.cpu.dtb.flush_tlb                            0                       # Number of times complete TLB was flushed
system.cpu.dtb.flush_tlb_asid                       0                       # Number of times TLB was flushed by ASID
system.cpu.dtb.flush_tlb_mva                        0                       # Number of times TLB was flushed by MVA
system.cpu.dtb.flush_tlb_mva_asid                   0                       # Number of times TLB was flushed by MVA & ASID
system.cpu.dtb.hits                                 0                       # DTB hits
system.cpu.dtb.inst_accesses                        0                       # ITB inst accesses
system.cpu.dtb.inst_hits                            0                       # ITB inst hits
system.cpu.dtb.inst_misses                          0                       # ITB inst misses
system.cpu.dtb.misses                               0                       # DTB misses
system.cpu.dtb.perms_faults                         0                       # Number of TLB faults due to permissions restrictions
system.cpu.dtb.prefetch_faults                      0                       # Number of TLB faults due to prefetch
system.cpu.dtb.read_accesses                        0                       # DTB read accesses
system.cpu.dtb.read_hits                            0                       # DTB read hits
system.cpu.dtb.read_misses                          0                       # DTB read misses
system.cpu.dtb.stage2_mmu.stage2_tlb.accesses            0                       # DTB accesses
system.cpu.dtb.stage2_mmu.stage2_tlb.align_faults            0                       # Number of TLB faults due to alignment restrictions
system.cpu.dtb.stage2_mmu.stage2_tlb.domain_faults            0                       # Number of TLB faults due to domain restrictions
system.cpu.dtb.stage2_mmu.stage2_tlb.flush_entries            0                       # Number of entries that have been flushed from TLB
system.cpu.dtb.stage2_mmu.stage2_tlb.flush_tlb            0                       # Number of times complete TLB was flushed
system.cpu.dtb.stage2_mmu.stage2_tlb.flush_tlb_asid            0                       # Number of times TLB was flushed by ASID
system.cpu.dtb.stage2_mmu.stage2_tlb.flush_tlb_mva            0                       # Number of times TLB was flushed by MVA
system.cpu.dtb.stage2_mmu.stage2_tlb.flush_tlb_mva_asid            0                       # Number of times TLB was flushed by MVA & ASID
system.cpu.dtb.stage2_mmu.stage2_tlb.hits            0                       # DTB hits
system.cpu.dtb.stage2_mmu.stage2_tlb.inst_accesses            0                       # ITB inst accesses
system.cpu.dtb.stage2_mmu.stage2_tlb.inst_hits            0                       # ITB inst hits
system.cpu.dtb.stage2_mmu.stage2_tlb.inst_misses            0                       # ITB inst misses
system.cpu.dtb.stage2_mmu.stage2_tlb.misses            0                       # DTB misses
system.cpu.dtb.stage2_mmu.stage2_tlb.perms_faults            0                       # Number of TLB faults due to permissions restrictions
system.cpu.dtb.stage2_mmu.stage2_tlb.prefetch_faults            0                       # Number of TLB faults due to prefetch
system.cpu.dtb.stage2_mmu.stage2_tlb.read_accesses            0                       # DTB read accesses
system.cpu.dtb.stage2_mmu.stage2_tlb.read_hits            0                       # DTB read hits
system.cpu.dtb.stage2_mmu.stage2_tlb.read_misses            0                       # DTB read misses
system.cpu.dtb.stage2_mmu.stage2_tlb.walker.walkRequestOrigin_Requested::Data            0                       # Table walker requests started/completed, data/inst
system.cpu.dtb.stage2_mmu.stage2_tlb.walker.walkRequestOrigin_Requested::Inst            0                       # Table walker requests started/completed, data/inst
system.cpu.dtb.stage2_mmu.stage2_tlb.walker.walkRequestOrigin_Requested::total            0                       # Table walker requests started/completed, data/inst
system.cpu.dtb.stage2_mmu.stage2_tlb.walker.walkRequestOrigin_Completed::Data            0                       # Table walker requests started/completed, data/inst
system.cpu.dtb.stage2_mmu.stage2_tlb.walker.walkRequestOrigin_Completed::Inst            0                       # Table walker requests started/completed, data/inst
system.cpu.dtb.stage2_mmu.stage2_tlb.walker.walkRequestOrigin_Completed::total            0                       # Table walker requests started/completed, data/inst
system.cpu.dtb.stage2_mmu.stage2_tlb.walker.walkRequestOrigin::total            0                       # Table walker requests started/completed, data/inst
system.cpu.dtb.stage2_mmu.stage2_tlb.walker.walks            0                       # Table walker walks requested
system.cpu.dtb.stage2_mmu.stage2_tlb.write_accesses            0                       # DTB write accesses
system.cpu.dtb.stage2_mmu.stage2_tlb.write_hits            0                       # DTB write hits
system.cpu.dtb.stage2_mmu.stage2_tlb.write_misses            0                       # DTB write misses
system.cpu.dtb.walker.walkRequestOrigin_Requested::Data            0                       # Table walker requests started/completed, data/inst
system.cpu.dtb.walker.walkRequestOrigin_Requested::Inst            0                       # Table walker requests started/completed, data/inst
system.cpu.dtb.walker.walkRequestOrigin_Requested::total            0                       # Table walker requests started/completed, data/inst
system.cpu.dtb.walker.walkRequestOrigin_Completed::Data            0                       # Table walker requests started/completed, data/inst
system.cpu.dtb.walker.walkRequestOrigin_Completed::Inst            0                       # Table walker requests started/completed, data/inst
system.cpu.dtb.walker.walkRequestOrigin_Completed::total            0                       # Table walker requests started/completed, data/inst
system.cpu.dtb.walker.walkRequestOrigin::total            0                       # Table walker requests started/completed, data/inst
system.cpu.dtb.walker.walks                         0                       # Table walker walks requested
system.cpu.dtb.write_accesses                       0                       # DTB write accesses
system.cpu.dtb.write_hits                           0                       # DTB write hits
system.cpu.dtb.write_misses                         0                       # DTB write misses
system.cpu.fetch2.amo_instructions                  0                       # Number of memory atomic instructions successfully decoded
system.cpu.fetch2.fp_instructions                   0                       # Number of floating point instructions successfully decoded
system.cpu.fetch2.int_instructions           49083102                       # Number of integer instructions successfully decoded
system.cpu.fetch2.load_instructions          17523755                       # Number of memory load instructions successfully decoded
system.cpu.fetch2.store_instructions         10083638                       # Number of memory store instructions successfully decoded
system.cpu.fetch2.vec_instructions                  0                       # Number of SIMD instructions successfully decoded
system.cpu.idleCycles                         3213825                       # Total number of cycles that the object has spent stopped
system.cpu.ipc                               0.911081                       # IPC: instructions per cycle
system.cpu.itb.accesses                             0                       # DTB accesses
system.cpu.itb.align_faults                         0                       # Number of TLB faults due to alignment restrictions
system.cpu.itb.domain_faults                        0                       # Number of TLB faults due to domain restrictions
system.cpu.itb.flush_entries                        0                       # Number of entries that have been flushed from TLB
system.cpu.itb.flush_tlb                            0                       # Number of times complete TLB was flushed
system.cpu.itb.flush_tlb_asid                       0                       # Number of times TLB was flushed by ASID
system.cpu.itb.flush_tlb_mva                        0                       # Number of times TLB was flushed by MVA
system.cpu.itb.flush_tlb_mva_asid                   0                       # Number of times TLB was flushed by MVA & ASID
system.cpu.itb.hits                                 0                       # DTB hits
system.cpu.itb.inst_accesses                        0                       # ITB inst accesses
system.cpu.itb.inst_hits                            0                       # ITB inst hits
system.cpu.itb.inst_misses                          0                       # ITB inst misses
system.cpu.itb.misses                               0                       # DTB misses
system.cpu.itb.perms_faults                         0                       # Number of TLB faults due to permissions restrictions
system.cpu.itb.prefetch_faults                      0                       # Number of TLB faults due to prefetch
system.cpu.itb.read_accesses                        0                       # DTB read accesses
system.cpu.itb.read_hits                            0                       # DTB read hits
system.cpu.itb.read_misses                          0                       # DTB read misses
system.cpu.itb.stage2_mmu.stage2_tlb.accesses            0                       # DTB accesses
system.cpu.itb.stage2_mmu.stage2_tlb.align_faults            0                       # Number of TLB faults due to alignment restrictions
system.cpu.itb.stage2_mmu.stage2_tlb.domain_faults            0                       # Number of TLB faults due to domain restrictions
system.cpu.itb.stage2_mmu.stage2_tlb.flush_entries            0                       # Number of entries that have been flushed from TLB
system.cpu.itb.stage2_mmu.stage2_tlb.flush_tlb            0                       # Number of times complete TLB was flushed
system.cpu.itb.stage2_mmu.stage2_tlb.flush_tlb_asid            0                       # Number of times TLB was flushed by ASID
system.cpu.itb.stage2_mmu.stage2_tlb.flush_tlb_mva            0                       # Number of times TLB was flushed by MVA
system.cpu.itb.stage2_mmu.stage2_tlb.flush_tlb_mva_asid            0                       # Number of times TLB was flushed by MVA & ASID
system.cpu.itb.stage2_mmu.stage2_tlb.hits            0                       # DTB hits
system.cpu.itb.stage2_mmu.stage2_tlb.inst_accesses            0                       # ITB inst accesses
system.cpu.itb.stage2_mmu.stage2_tlb.inst_hits            0                       # ITB inst hits
system.cpu.itb.stage2_mmu.stage2_tlb.inst_misses            0                       # ITB inst misses
system.cpu.itb.stage2_mmu.stage2_tlb.misses            0                       # DTB misses
system.cpu.itb.stage2_mmu.stage2_tlb.perms_faults            0                       # Number of TLB faults due to permissions restrictions
system.cpu.itb.stage2_mmu.stage2_tlb.prefetch_faults            0                       # Number of TLB faults due to prefetch
system.cpu.itb.stage2_mmu.stage2_tlb.read_accesses            0                       # DTB read accesses
system.cpu.itb.stage2_mmu.stage2_tlb.read_hits            0                       # DTB read hits
system.cpu.itb.stage2_mmu.stage2_tlb.read_misses            0                       # DTB read misses
system.cpu.itb.stage2_mmu.stage2_tlb.walker.walkRequestOrigin_Requested::Data            0                       # Table walker requests started/completed, data/inst
system.cpu.itb.stage2_mmu.stage2_tlb.walker.walkRequestOrigin_Requested::Inst            0                       # Table walker requests started/completed, data/inst
system.cpu.itb.stage2_mmu.stage2_tlb.walker.walkRequestOrigin_Requested::total            0                       # Table walker requests started/completed, data/inst
system.cpu.itb.stage2_mmu.stage2_tlb.walker.walkRequestOrigin_Completed::Data            0                       # Table walker requests started/completed, data/inst
system.cpu.itb.stage2_mmu.stage2_tlb.walker.walkRequestOrigin_Completed::Inst            0                       # Table walker requests started/completed, data/inst
system.cpu.itb.stage2_mmu.stage2_tlb.walker.walkRequestOrigin_Completed::total            0                       # Table walker requests started/completed, data/inst
system.cpu.itb.stage2_mmu.stage2_tlb.walker.walkRequestOrigin::total            0                       # Table walker requests started/completed, data/inst
system.cpu.itb.stage2_mmu.stage2_tlb.walker.walks            0                       # Table walker walks requested
system.cpu.itb.stage2_mmu.stage2_tlb.write_accesses            0                       # DTB write accesses
system.cpu.itb.stage2_mmu.stage2_tlb.write_hits            0                       # DTB write hits
system.cpu.itb.stage2_mmu.stage2_tlb.write_misses            0                       # DTB write misses
system.cpu.itb.walker.walkRequestOrigin_Requested::Data            0                       # Table walker requests started/completed, data/inst
system.cpu.itb.walker.walkRequestOrigin_Requested::Inst            0                       # Table walker requests started/completed, data/inst
system.cpu.itb.walker.walkRequestOrigin_Requested::total            0                       # Table walker requests started/completed, data/inst
system.cpu.itb.walker.walkRequestOrigin_Completed::Data            0                       # Table walker requests started/completed, data/inst
system.cpu.itb.walker.walkRequestOrigin_Completed::Inst            0                       # Table walker requests started/completed, data/inst
system.cpu.itb.walker.walkRequestOrigin_Completed::total            0                       # Table walker requests started/completed, data/inst
system.cpu.itb.walker.walkRequestOrigin::total            0                       # Table walker requests started/completed, data/inst
system.cpu.itb.walker.walks                         0                       # Table walker walks requested
system.cpu.itb.write_accesses                       0                       # DTB write accesses
system.cpu.itb.write_hits                           0                       # DTB write hits
system.cpu.itb.write_misses                         0                       # DTB write misses
system.cpu.numCycles                        109759669                       # number of cpu cycles simulated
system.cpu.numFetchSuspends                         0                       # Number of times Execute suspended instruction fetching
system.cpu.numWorkItemsCompleted                    0                       # number of work items this cpu completed
system.cpu.numWorkItemsStarted                      0                       # number of work items this cpu started
system.cpu.op_class_0::No_OpClass                   0      0.00%      0.00% # Class of committed instruction
system.cpu.op_class_0::IntAlu                72223173     66.18%     66.18% # Class of committed instruction
system.cpu.op_class_0::IntMult                 547032      0.50%     66.68% # Class of committed instruction
system.cpu.op_class_0::IntDiv                       0      0.00%     66.68% # Class of committed instruction
system.cpu.op_class_0::FloatAdd                     0      0.00%     66.68% # Class of committed instruction
system.cpu.op_class_0::FloatCmp                     0      0.00%     66.68% # Class of committed instruction
system.cpu.op_class_0::FloatCvt                     0      0.00%     66.68% # Class of committed instruction
system.cpu.op_class_0::FloatMult                    0      0.00%     66.68% # Class of committed instruction
system.cpu.op_class_0::FloatMultAcc                 0      0.00%     66.68% # Class of committed instruction
system.cpu.op_class_0::FloatDiv                     0      0.00%     66.68% # Class of committed instruction
system.cpu.op_class_0::FloatMisc                    0      0.00%     66.68% # Class of committed instruction
system.cpu.op_class_0::FloatSqrt                    0      0.00%     66.68% # Class of committed instruction
system.cpu.op_class_0::SimdAdd                 231656      0.21%     66.89% # Class of committed instruction
system.cpu.op_class_0::SimdAddAcc                   0      0.00%     66.89% # Class of committed instruction
system.cpu.op_class_0::SimdAlu                 148482      0.14%     67.02% # Class of committed instruction
system.cpu.op_class_0::SimdCmp                 115828      0.11%     67.13% # Class of committed instruction
system.cpu.op_class_0::SimdCvt                      0      0.00%     67.13% # Class of committed instruction
system.cpu.op_class_0::SimdMisc                 42808      0.04%     67.17% # Class of committed instruction
system.cpu.op_class_0::SimdMult                     0      0.00%     67.17% # Class of committed instruction
system.cpu.op_class_0::SimdMultAcc                  0      0.00%     67.17% # Class of committed instruction
system.cpu.op_class_0::SimdShift                    0      0.00%     67.17% # Class of committed instruction
system.cpu.op_class_0::SimdShiftAcc                 0      0.00%     67.17% # Class of committed instruction
system.cpu.op_class_0::SimdDiv                      0      0.00%     67.17% # Class of committed instruction
system.cpu.op_class_0::SimdSqrt                     0      0.00%     67.17% # Class of committed instruction
system.cpu.op_class_0::SimdFloatAdd                 0      0.00%     67.17% # Class of committed instruction
system.cpu.op_class_0::SimdFloatAlu                 0      0.00%     67.17% # Class of committed instruction
system.cpu.op_class_0::SimdFloatCmp                 0      0.00%     67.17% # Class of committed instruction
system.cpu.op_class_0::SimdFloatCvt                 0      0.00%     67.17% # Class of committed instruction
system.cpu.op_class_0::SimdFloatDiv                 0      0.00%     67.17% # Class of committed instruction
system.cpu.op_class_0::SimdFloatMisc           159857      0.15%     67.32% # Class of committed instruction
system.cpu.op_class_0::SimdFloatMult                0      0.00%     67.32% # Class of committed instruction
system.cpu.op_class_0::SimdFloatMultAcc             0      0.00%     67.32% # Class of committed instruction
system.cpu.op_class_0::SimdFloatSqrt                0      0.00%     67.32% # Class of committed instruction
system.cpu.op_class_0::SimdReduceAdd                0      0.00%     67.32% # Class of committed instruction
system.cpu.op_class_0::SimdReduceAlu                0      0.00%     67.32% # Class of committed instruction
system.cpu.op_class_0::SimdReduceCmp                0      0.00%     67.32% # Class of committed instruction
system.cpu.op_class_0::SimdFloatReduceAdd            0      0.00%     67.32% # Class of committed instruction
system.cpu.op_class_0::SimdFloatReduceCmp            0      0.00%     67.32% # Class of committed instruction
system.cpu.op_class_0::SimdAes                      0      0.00%     67.32% # Class of committed instruction
system.cpu.op_class_0::SimdAesMix                   0      0.00%     67.32% # Class of committed instruction
system.cpu.op_class_0::SimdSha1Hash                 0      0.00%     67.32% # Class of committed instruction
system.cpu.op_class_0::SimdSha1Hash2                0      0.00%     67.32% # Class of committed instruction
system.cpu.op_class_0::SimdSha256Hash               0      0.00%     67.32% # Class of committed instruction
system.cpu.op_class_0::SimdSha256Hash2              0      0.00%     67.32% # Class of committed instruction
system.cpu.op_class_0::SimdShaSigma2                0      0.00%     67.32% # Class of committed instruction
system.cpu.op_class_0::SimdShaSigma3                0      0.00%     67.32% # Class of committed instruction
system.cpu.op_class_0::SimdPredAlu                  0      0.00%     67.32% # Class of committed instruction
system.cpu.op_class_0::MemRead               20932798     19.18%     86.50% # Class of committed instruction
system.cpu.op_class_0::MemWrite              14737790     13.50%    100.00% # Class of committed instruction
system.cpu.op_class_0::FloatMemRead                 0      0.00%    100.00% # Class of committed instruction
system.cpu.op_class_0::FloatMemWrite                0      0.00%    100.00% # Class of committed instruction
system.cpu.op_class_0::IprAccess                    0      0.00%    100.00% # Class of committed instruction
system.cpu.op_class_0::InstPrefetch                 0      0.00%    100.00% # Class of committed instruction
system.cpu.op_class_0::total                109139424                       # Class of committed instruction
system.cpu.tickCycles                       106545844                       # Number of cycles that the object actually ticked
system.cpu.workload.numSyscalls                    85                       # Number of system calls
system.membus.snoop_filter.hit_multi_requests            0                       # Number of requests hitting in the snoop filter with multiple (>1) holders of the requested data.
system.membus.snoop_filter.hit_multi_snoops            0                       # Number of snoops hitting in the snoop filter with multiple (>1) holders of the requested data.
system.membus.snoop_filter.hit_single_requests        36590                       # Number of requests hitting in the snoop filter with a single holder of the requested data.
system.membus.snoop_filter.hit_single_snoops            0                       # Number of snoops hitting in the snoop filter with a single holder of the requested data.
system.membus.snoop_filter.tot_requests         81842                       # Total number of requests made to the snoop filter.
system.membus.snoop_filter.tot_snoops               0                       # Total number of snoops made to the snoop filter.
system.tol2bus.snoop_filter.hit_multi_requests           15                       # Number of requests hitting in the snoop filter with multiple (>1) holders of the requested data.
system.tol2bus.snoop_filter.hit_multi_snoops            2                       # Number of snoops hitting in the snoop filter with multiple (>1) holders of the requested data.
system.tol2bus.snoop_filter.hit_single_requests        57208                       # Number of requests hitting in the snoop filter with a single holder of the requested data.
system.tol2bus.snoop_filter.hit_single_snoops          723                       # Number of snoops hitting in the snoop filter with a single holder of the requested data.
system.tol2bus.snoop_filter.tot_requests       115366                       # Total number of requests made to the snoop filter.
system.tol2bus.snoop_filter.tot_snoops            725                       # Total number of snoops made to the snoop filter.
system.membus.pwrStateResidencyTicks::UNDEFINED 109759669000                       # Cumulative time (in ticks) in various power states
system.membus.trans_dist::ReadResp               7311                       # Transaction distribution
system.membus.trans_dist::WritebackDirty        36245                       # Transaction distribution
system.membus.trans_dist::CleanEvict              345                       # Transaction distribution
system.membus.trans_dist::ReadExReq             37941                       # Transaction distribution
system.membus.trans_dist::ReadExResp            37941                       # Transaction distribution
system.membus.trans_dist::ReadSharedReq          7311                       # Transaction distribution
system.membus.pkt_count_system.l2.mem_side::system.mem_ctrls.port       127094                       # Packet count per connected master and slave (bytes)
system.membus.pkt_count::total                 127094                       # Packet count per connected master and slave (bytes)
system.membus.pkt_size_system.l2.mem_side::system.mem_ctrls.port      5215808                       # Cumulative packet size per connected master and slave (bytes)
system.membus.pkt_size::total                 5215808                       # Cumulative packet size per connected master and slave (bytes)
system.membus.snoops                                0                       # Total snoops (count)
system.membus.snoopTraffic                          0                       # Total snoop traffic (bytes)
system.membus.snoop_fanout::samples             45252                       # Request fanout histogram
system.membus.snoop_fanout::mean                    0                       # Request fanout histogram
system.membus.snoop_fanout::stdev                   0                       # Request fanout histogram
system.membus.snoop_fanout::underflows              0      0.00%      0.00% # Request fanout histogram
system.membus.snoop_fanout::0                   45252    100.00%    100.00% # Request fanout histogram
system.membus.snoop_fanout::1                       0      0.00%    100.00% # Request fanout histogram
system.membus.snoop_fanout::overflows               0      0.00%    100.00% # Request fanout histogram
system.membus.snoop_fanout::min_value               0                       # Request fanout histogram
system.membus.snoop_fanout::max_value               0                       # Request fanout histogram
system.membus.snoop_fanout::total               45252                       # Request fanout histogram
system.membus.respLayer1.occupancy          244320250                       # Layer occupancy (ticks)
system.membus.respLayer1.utilization              0.2                       # Layer utilization (%)
system.membus.reqLayer0.occupancy           226822000                       # Layer occupancy (ticks)
system.membus.reqLayer0.utilization               0.2                       # Layer utilization (%)
system.tol2bus.pwrStateResidencyTicks::UNDEFINED 109759669000                       # Cumulative time (in ticks) in various power states
system.tol2bus.trans_dist::ReadResp             20194                       # Transaction distribution
system.tol2bus.trans_dist::WritebackDirty        86365                       # Transaction distribution
system.tol2bus.trans_dist::WritebackClean          484                       # Transaction distribution
system.tol2bus.trans_dist::CleanEvict            7566                       # Transaction distribution
system.tol2bus.trans_dist::ReadExReq            37966                       # Transaction distribution
system.tol2bus.trans_dist::ReadExResp           37966                       # Transaction distribution
system.tol2bus.trans_dist::ReadCleanReq           926                       # Transaction distribution
system.tol2bus.trans_dist::ReadSharedReq        19268                       # Transaction distribution
system.tol2bus.pkt_count_system.cpu.icache.mem_side::system.l2.cpu_side         2336                       # Packet count per connected master and slave (bytes)
system.tol2bus.pkt_count_system.cpu.dcache.mem_side::system.l2.cpu_side       171190                       # Packet count per connected master and slave (bytes)
system.tol2bus.pkt_count::total                173526                       # Packet count per connected master and slave (bytes)
system.tol2bus.pkt_size_system.cpu.icache.mem_side::system.l2.cpu_side        90240                       # Cumulative packet size per connected master and slave (bytes)
system.tol2bus.pkt_size_system.cpu.dcache.mem_side::system.l2.cpu_side      6870656                       # Cumulative packet size per connected master and slave (bytes)
system.tol2bus.pkt_size::total                6960896                       # Cumulative packet size per connected master and slave (bytes)
system.tol2bus.snoops                           37209                       # Total snoops (count)
system.tol2bus.snoopTraffic                   2319680                       # Total snoop traffic (bytes)
system.tol2bus.snoop_fanout::samples            95369                       # Request fanout histogram
system.tol2bus.snoop_fanout::mean            0.007801                       # Request fanout histogram
system.tol2bus.snoop_fanout::stdev           0.088218                       # Request fanout histogram
system.tol2bus.snoop_fanout::underflows             0      0.00%      0.00% # Request fanout histogram
system.tol2bus.snoop_fanout::0                  94627     99.22%     99.22% # Request fanout histogram
system.tol2bus.snoop_fanout::1                    740      0.78%    100.00% # Request fanout histogram
system.tol2bus.snoop_fanout::2                      2      0.00%    100.00% # Request fanout histogram
system.tol2bus.snoop_fanout::overflows              0      0.00%    100.00% # Request fanout histogram
system.tol2bus.snoop_fanout::min_value              0                       # Request fanout histogram
system.tol2bus.snoop_fanout::max_value              2                       # Request fanout histogram
system.tol2bus.snoop_fanout::total              95369                       # Request fanout histogram
system.tol2bus.reqLayer0.occupancy          216574000                       # Layer occupancy (ticks)
system.tol2bus.reqLayer0.utilization              0.2                       # Layer utilization (%)
system.tol2bus.respLayer1.occupancy         171702999                       # Layer occupancy (ticks)
system.tol2bus.respLayer1.utilization             0.2                       # Layer utilization (%)
system.tol2bus.respLayer0.occupancy           2778999                       # Layer occupancy (ticks)
system.tol2bus.respLayer0.utilization             0.0                       # Layer utilization (%)
system.voltage_domain.voltage                       1                       # Voltage in Volts
system.clk_domain.clock                          1000                       # Clock period in ticks
system.l2.pwrStateResidencyTicks::UNDEFINED 109759669000                       # Cumulative time (in ticks) in various power states
system.l2.demand_hits::.cpu.inst                  413                       # number of demand (read+write) hits
system.l2.demand_hits::.cpu.data                12493                       # number of demand (read+write) hits
system.l2.demand_hits::total                    12906                       # number of demand (read+write) hits
system.l2.overall_hits::.cpu.inst                 413                       # number of overall hits
system.l2.overall_hits::.cpu.data               12493                       # number of overall hits
system.l2.overall_hits::total                   12906                       # number of overall hits
system.l2.demand_misses::.cpu.inst                513                       # number of demand (read+write) misses
system.l2.demand_misses::.cpu.data              44741                       # number of demand (read+write) misses
system.l2.demand_misses::total                  45254                       # number of demand (read+write) misses
system.l2.overall_misses::.cpu.inst               513                       # number of overall misses
system.l2.overall_misses::.cpu.data             44741                       # number of overall misses
system.l2.overall_misses::total                 45254                       # number of overall misses
system.l2.demand_miss_latency::.cpu.inst     49624000                       # number of demand (read+write) miss cycles
system.l2.demand_miss_latency::.cpu.data   4886160000                       # number of demand (read+write) miss cycles
system.l2.demand_miss_latency::total       4935784000                       # number of demand (read+write) miss cycles
system.l2.overall_miss_latency::.cpu.inst     49624000                       # number of overall miss cycles
system.l2.overall_miss_latency::.cpu.data   4886160000                       # number of overall miss cycles
system.l2.overall_miss_latency::total      4935784000                       # number of overall miss cycles
system.l2.demand_accesses::.cpu.inst              926                       # number of demand (read+write) accesses
system.l2.demand_accesses::.cpu.data            57234                       # number of demand (read+write) accesses
system.l2.demand_accesses::total                58160                       # number of demand (read+write) accesses
system.l2.overall_accesses::.cpu.inst             926                       # number of overall (read+write) accesses
system.l2.overall_accesses::.cpu.data           57234                       # number of overall (read+write) accesses
system.l2.overall_accesses::total               58160                       # number of overall (read+write) accesses
system.l2.demand_miss_rate::.cpu.inst        0.553996                       # miss rate for demand accesses
system.l2.demand_miss_rate::.cpu.data        0.781721                       # miss rate for demand accesses
system.l2.demand_miss_rate::total            0.778095                       # miss rate for demand accesses
system.l2.overall_miss_rate::.cpu.inst       0.553996                       # miss rate for overall accesses
system.l2.overall_miss_rate::.cpu.data       0.781721                       # miss rate for overall accesses
system.l2.overall_miss_rate::total           0.778095                       # miss rate for overall accesses
system.l2.demand_avg_miss_latency::.cpu.inst 96732.943470                       # average overall miss latency
system.l2.demand_avg_miss_latency::.cpu.data 109209.896963                       # average overall miss latency
system.l2.demand_avg_miss_latency::total 109068.458037                       # average overall miss latency
system.l2.overall_avg_miss_latency::.cpu.inst 96732.943470                       # average overall miss latency
system.l2.overall_avg_miss_latency::.cpu.data 109209.896963                       # average overall miss latency
system.l2.overall_avg_miss_latency::total 109068.458037                       # average overall miss latency
system.l2.blocked_cycles::no_mshrs                  0                       # number of cycles access was blocked
system.l2.blocked_cycles::no_targets                0                       # number of cycles access was blocked
system.l2.blocked::no_mshrs                         0                       # number of cycles access was blocked
system.l2.blocked::no_targets                       0                       # number of cycles access was blocked
system.l2.avg_blocked_cycles::no_mshrs            nan                       # average number of cycles each access was blocked
system.l2.avg_blocked_cycles::no_targets          nan                       # average number of cycles each access was blocked
system.l2.writebacks::.writebacks               36245                       # number of writebacks
system.l2.writebacks::total                     36245                       # number of writebacks
system.l2.demand_mshr_hits::.cpu.inst               1                       # number of demand (read+write) MSHR hits
system.l2.demand_mshr_hits::.cpu.data               1                       # number of demand (read+write) MSHR hits
system.l2.demand_mshr_hits::total                   2                       # number of demand (read+write) MSHR hits
system.l2.overall_mshr_hits::.cpu.inst              1                       # number of overall MSHR hits
system.l2.overall_mshr_hits::.cpu.data              1                       # number of overall MSHR hits
system.l2.overall_mshr_hits::total                  2                       # number of overall MSHR hits
system.l2.demand_mshr_misses::.cpu.inst           512                       # number of demand (read+write) MSHR misses
system.l2.demand_mshr_misses::.cpu.data         44740                       # number of demand (read+write) MSHR misses
system.l2.demand_mshr_misses::total             45252                       # number of demand (read+write) MSHR misses
system.l2.overall_mshr_misses::.cpu.inst          512                       # number of overall MSHR misses
system.l2.overall_mshr_misses::.cpu.data        44740                       # number of overall MSHR misses
system.l2.overall_mshr_misses::total            45252                       # number of overall MSHR misses
system.l2.demand_mshr_miss_latency::.cpu.inst     39310000                       # number of demand (read+write) MSHR miss cycles
system.l2.demand_mshr_miss_latency::.cpu.data   3991273000                       # number of demand (read+write) MSHR miss cycles
system.l2.demand_mshr_miss_latency::total   4030583000                       # number of demand (read+write) MSHR miss cycles
system.l2.overall_mshr_miss_latency::.cpu.inst     39310000                       # number of overall MSHR miss cycles
system.l2.overall_mshr_miss_latency::.cpu.data   3991273000                       # number of overall MSHR miss cycles
system.l2.overall_mshr_miss_latency::total   4030583000                       # number of overall MSHR miss cycles
system.l2.demand_mshr_miss_rate::.cpu.inst     0.552916                       # mshr miss rate for demand accesses
system.l2.demand_mshr_miss_rate::.cpu.data     0.781703                       # mshr miss rate for demand accesses
system.l2.demand_mshr_miss_rate::total       0.778061                       # mshr miss rate for demand accesses
system.l2.overall_mshr_miss_rate::.cpu.inst     0.552916                       # mshr miss rate for overall accesses
system.l2.overall_mshr_miss_rate::.cpu.data     0.781703                       # mshr miss rate for overall accesses
system.l2.overall_mshr_miss_rate::total      0.778061                       # mshr miss rate for overall accesses
system.l2.demand_avg_mshr_miss_latency::.cpu.inst 76777.343750                       # average overall mshr miss latency
system.l2.demand_avg_mshr_miss_latency::.cpu.data 89210.393384                       # average overall mshr miss latency
system.l2.demand_avg_mshr_miss_latency::total 89069.720675                       # average overall mshr miss latency
system.l2.overall_avg_mshr_miss_latency::.cpu.inst 76777.343750                       # average overall mshr miss latency
system.l2.overall_avg_mshr_miss_latency::.cpu.data 89210.393384                       # average overall mshr miss latency
system.l2.overall_avg_mshr_miss_latency::total 89069.720675                       # average overall mshr miss latency
system.l2.replacements                          37209                       # number of replacements
system.l2.WritebackDirty_hits::.writebacks        50120                       # number of WritebackDirty hits
system.l2.WritebackDirty_hits::total            50120                       # number of WritebackDirty hits
system.l2.WritebackDirty_accesses::.writebacks        50120                       # number of WritebackDirty accesses(hits+misses)
system.l2.WritebackDirty_accesses::total        50120                       # number of WritebackDirty accesses(hits+misses)
system.l2.WritebackClean_hits::.writebacks          482                       # number of WritebackClean hits
system.l2.WritebackClean_hits::total              482                       # number of WritebackClean hits
system.l2.WritebackClean_accesses::.writebacks          482                       # number of WritebackClean accesses(hits+misses)
system.l2.WritebackClean_accesses::total          482                       # number of WritebackClean accesses(hits+misses)
system.l2.CleanEvict_mshr_misses::.writebacks          106                       # number of CleanEvict MSHR misses
system.l2.CleanEvict_mshr_misses::total           106                       # number of CleanEvict MSHR misses
system.l2.CleanEvict_mshr_miss_rate::.writebacks          inf                       # mshr miss rate for CleanEvict accesses
system.l2.CleanEvict_mshr_miss_rate::total          inf                       # mshr miss rate for CleanEvict accesses
system.l2.ReadExReq_hits::.cpu.data                25                       # number of ReadExReq hits
system.l2.ReadExReq_hits::total                    25                       # number of ReadExReq hits
system.l2.ReadExReq_misses::.cpu.data           37941                       # number of ReadExReq misses
system.l2.ReadExReq_misses::total               37941                       # number of ReadExReq misses
system.l2.ReadExReq_miss_latency::.cpu.data   4123502000                       # number of ReadExReq miss cycles
system.l2.ReadExReq_miss_latency::total    4123502000                       # number of ReadExReq miss cycles
system.l2.ReadExReq_accesses::.cpu.data         37966                       # number of ReadExReq accesses(hits+misses)
system.l2.ReadExReq_accesses::total             37966                       # number of ReadExReq accesses(hits+misses)
system.l2.ReadExReq_miss_rate::.cpu.data     0.999342                       # miss rate for ReadExReq accesses
system.l2.ReadExReq_miss_rate::total         0.999342                       # miss rate for ReadExReq accesses
system.l2.ReadExReq_avg_miss_latency::.cpu.data 108681.953559                       # average ReadExReq miss latency
system.l2.ReadExReq_avg_miss_latency::total 108681.953559                       # average ReadExReq miss latency
system.l2.ReadExReq_mshr_misses::.cpu.data        37941                       # number of ReadExReq MSHR misses
system.l2.ReadExReq_mshr_misses::total          37941                       # number of ReadExReq MSHR misses
system.l2.ReadExReq_mshr_miss_latency::.cpu.data   3364682000                       # number of ReadExReq MSHR miss cycles
system.l2.ReadExReq_mshr_miss_latency::total   3364682000                       # number of ReadExReq MSHR miss cycles
system.l2.ReadExReq_mshr_miss_rate::.cpu.data     0.999342                       # mshr miss rate for ReadExReq accesses
system.l2.ReadExReq_mshr_miss_rate::total     0.999342                       # mshr miss rate for ReadExReq accesses
system.l2.ReadExReq_avg_mshr_miss_latency::.cpu.data 88681.953559                       # average ReadExReq mshr miss latency
system.l2.ReadExReq_avg_mshr_miss_latency::total 88681.953559                       # average ReadExReq mshr miss latency
system.l2.ReadCleanReq_hits::.cpu.inst            413                       # number of ReadCleanReq hits
system.l2.ReadCleanReq_hits::total                413                       # number of ReadCleanReq hits
system.l2.ReadCleanReq_misses::.cpu.inst          513                       # number of ReadCleanReq misses
system.l2.ReadCleanReq_misses::total              513                       # number of ReadCleanReq misses
system.l2.ReadCleanReq_miss_latency::.cpu.inst     49624000                       # number of ReadCleanReq miss cycles
system.l2.ReadCleanReq_miss_latency::total     49624000                       # number of ReadCleanReq miss cycles
system.l2.ReadCleanReq_accesses::.cpu.inst          926                       # number of ReadCleanReq accesses(hits+misses)
system.l2.ReadCleanReq_accesses::total            926                       # number of ReadCleanReq accesses(hits+misses)
system.l2.ReadCleanReq_miss_rate::.cpu.inst     0.553996                       # miss rate for ReadCleanReq accesses
system.l2.ReadCleanReq_miss_rate::total      0.553996                       # miss rate for ReadCleanReq accesses
system.l2.ReadCleanReq_avg_miss_latency::.cpu.inst 96732.943470                       # average ReadCleanReq miss latency
system.l2.ReadCleanReq_avg_miss_latency::total 96732.943470                       # average ReadCleanReq miss latency
system.l2.ReadCleanReq_mshr_hits::.cpu.inst            1                       # number of ReadCleanReq MSHR hits
system.l2.ReadCleanReq_mshr_hits::total             1                       # number of ReadCleanReq MSHR hits
system.l2.ReadCleanReq_mshr_misses::.cpu.inst          512                       # number of ReadCleanReq MSHR misses
system.l2.ReadCleanReq_mshr_misses::total          512                       # number of ReadCleanReq MSHR misses
system.l2.ReadCleanReq_mshr_miss_latency::.cpu.inst     39310000                       # number of ReadCleanReq MSHR miss cycles
system.l2.ReadCleanReq_mshr_miss_latency::total     39310000                       # number of ReadCleanReq MSHR miss cycles
system.l2.ReadCleanReq_mshr_miss_rate::.cpu.inst     0.552916                       # mshr miss rate for ReadCleanReq accesses
system.l2.ReadCleanReq_mshr_miss_rate::total     0.552916                       # mshr miss rate for ReadCleanReq accesses
system.l2.ReadCleanReq_avg_mshr_miss_latency::.cpu.inst 76777.343750                       # average ReadCleanReq mshr miss latency
system.l2.ReadCleanReq_avg_mshr_miss_latency::total 76777.343750                       # average ReadCleanReq mshr miss latency
system.l2.ReadSharedReq_hits::.cpu.data         12468                       # number of ReadSharedReq hits
system.l2.ReadSharedReq_hits::total             12468                       # number of ReadSharedReq hits
system.l2.ReadSharedReq_misses::.cpu.data         6800                       # number of ReadSharedReq misses
system.l2.ReadSharedReq_misses::total            6800                       # number of ReadSharedReq misses
system.l2.ReadSharedReq_miss_latency::.cpu.data    762658000                       # number of ReadSharedReq miss cycles
system.l2.ReadSharedReq_miss_latency::total    762658000                       # number of ReadSharedReq miss cycles
system.l2.ReadSharedReq_accesses::.cpu.data        19268                       # number of ReadSharedReq accesses(hits+misses)
system.l2.ReadSharedReq_accesses::total         19268                       # number of ReadSharedReq accesses(hits+misses)
system.l2.ReadSharedReq_miss_rate::.cpu.data     0.352917                       # miss rate for ReadSharedReq accesses
system.l2.ReadSharedReq_miss_rate::total     0.352917                       # miss rate for ReadSharedReq accesses
system.l2.ReadSharedReq_avg_miss_latency::.cpu.data 112155.588235                       # average ReadSharedReq miss latency
system.l2.ReadSharedReq_avg_miss_latency::total 112155.588235                       # average ReadSharedReq miss latency
system.l2.ReadSharedReq_mshr_hits::.cpu.data            1                       # number of ReadSharedReq MSHR hits
system.l2.ReadSharedReq_mshr_hits::total            1                       # number of ReadSharedReq MSHR hits
system.l2.ReadSharedReq_mshr_misses::.cpu.data         6799                       # number of ReadSharedReq MSHR misses
system.l2.ReadSharedReq_mshr_misses::total         6799                       # number of ReadSharedReq MSHR misses
system.l2.ReadSharedReq_mshr_miss_latency::.cpu.data    626591000                       # number of ReadSharedReq MSHR miss cycles
system.l2.ReadSharedReq_mshr_miss_latency::total    626591000                       # number of ReadSharedReq MSHR miss cycles
system.l2.ReadSharedReq_mshr_miss_rate::.cpu.data     0.352865                       # mshr miss rate for ReadSharedReq accesses
system.l2.ReadSharedReq_mshr_miss_rate::total     0.352865                       # mshr miss rate for ReadSharedReq accesses
system.l2.ReadSharedReq_avg_mshr_miss_latency::.cpu.data 92159.288131                       # average ReadSharedReq mshr miss latency
system.l2.ReadSharedReq_avg_mshr_miss_latency::total 92159.288131                       # average ReadSharedReq mshr miss latency
system.l2.tags.pwrStateResidencyTicks::UNDEFINED 109759669000                       # Cumulative time (in ticks) in various power states
system.l2.tags.tagsinuse                  7964.713805                       # Cycle average of tags in use
system.l2.tags.total_refs                      115243                       # Total number of references to valid blocks.
system.l2.tags.sampled_refs                     45401                       # Sample count of references to valid blocks.
system.l2.tags.avg_refs                      2.538336                       # Average number of references to valid blocks.
system.l2.tags.warmup_cycle                     87000                       # Cycle when the warmup percentage was hit.
system.l2.tags.occ_blocks::.writebacks      20.221204                       # Average occupied blocks per requestor
system.l2.tags.occ_blocks::.cpu.inst        18.423360                       # Average occupied blocks per requestor
system.l2.tags.occ_blocks::.cpu.data      7926.069240                       # Average occupied blocks per requestor
system.l2.tags.occ_percent::.writebacks      0.002468                       # Average percentage of cache occupancy
system.l2.tags.occ_percent::.cpu.inst        0.002249                       # Average percentage of cache occupancy
system.l2.tags.occ_percent::.cpu.data        0.967538                       # Average percentage of cache occupancy
system.l2.tags.occ_percent::total            0.972255                       # Average percentage of cache occupancy
system.l2.tags.occ_task_id_blocks::1024          8192                       # Occupied blocks per task id
system.l2.tags.age_task_id_blocks_1024::0            3                       # Occupied blocks per task id
system.l2.tags.age_task_id_blocks_1024::1           20                       # Occupied blocks per task id
system.l2.tags.age_task_id_blocks_1024::2          220                       # Occupied blocks per task id
system.l2.tags.age_task_id_blocks_1024::3         2446                       # Occupied blocks per task id
system.l2.tags.age_task_id_blocks_1024::4         5503                       # Occupied blocks per task id
system.l2.tags.occ_task_id_percent::1024            1                       # Percentage of cache occupancy per task id
system.l2.tags.tag_accesses                    276103                       # Number of tag accesses
system.l2.tags.data_accesses                   276103                       # Number of data accesses
system.cpu_voltage_domain.voltage                   1                       # Voltage in Volts
system.mem_ctrls.pwrStateResidencyTicks::UNDEFINED 109759669000                       # Cumulative time (in ticks) in various power states
system.mem_ctrls.bytes_read::.cpu.inst          32768                       # Number of bytes read from this memory
system.mem_ctrls.bytes_read::.cpu.data        2863360                       # Number of bytes read from this memory
system.mem_ctrls.bytes_read::total            2896128                       # Number of bytes read from this memory
system.mem_ctrls.bytes_inst_read::.cpu.inst        32768                       # Number of instructions bytes read from this memory
system.mem_ctrls.bytes_inst_read::total         32768                       # Number of instructions bytes read from this memory
system.mem_ctrls.bytes_written::.writebacks      2319680                       # Number of bytes written to this memory
system.mem_ctrls.bytes_written::total         2319680                       # Number of bytes written to this memory
system.mem_ctrls.num_reads::.cpu.inst             512                       # Number of read requests responded to by this memory
system.mem_ctrls.num_reads::.cpu.data           44740                       # Number of read requests responded to by this memory
system.mem_ctrls.num_reads::total               45252                       # Number of read requests responded to by this memory
system.mem_ctrls.num_writes::.writebacks        36245                       # Number of write requests responded to by this memory
system.mem_ctrls.num_writes::total              36245                       # Number of write requests responded to by this memory
system.mem_ctrls.bw_read::.cpu.inst            298543                       # Total read bandwidth from this memory (bytes/s)
system.mem_ctrls.bw_read::.cpu.data          26087542                       # Total read bandwidth from this memory (bytes/s)
system.mem_ctrls.bw_read::total              26386085                       # Total read bandwidth from this memory (bytes/s)
system.mem_ctrls.bw_inst_read::.cpu.inst       298543                       # Instruction read bandwidth from this memory (bytes/s)
system.mem_ctrls.bw_inst_read::total           298543                       # Instruction read bandwidth from this memory (bytes/s)
system.mem_ctrls.bw_write::.writebacks       21134175                       # Write bandwidth from this memory (bytes/s)
system.mem_ctrls.bw_write::total             21134175                       # Write bandwidth from this memory (bytes/s)
system.mem_ctrls.bw_total::.writebacks       21134175                       # Total bandwidth to/from this memory (bytes/s)
system.mem_ctrls.bw_total::.cpu.inst           298543                       # Total bandwidth to/from this memory (bytes/s)
system.mem_ctrls.bw_total::.cpu.data         26087542                       # Total bandwidth to/from this memory (bytes/s)
system.mem_ctrls.bw_total::total             47520260                       # Total bandwidth to/from this memory (bytes/s)
system.mem_ctrls.avgPriority_.writebacks::samples     36245.00                       # Average QoS priority value for accepted requests
system.mem_ctrls.avgPriority_.cpu.inst::samples       512.00                       # Average QoS priority value for accepted requests
system.mem_ctrls.avgPriority_.cpu.data::samples     44727.00                       # Average QoS priority value for accepted requests
system.mem_ctrls.priorityMinLatency      0.000000018750                       # per QoS priority minimum request to response latency (s)
system.mem_ctrls.priorityMaxLatency      0.001317796500                       # per QoS priority maximum request to response latency (s)
system.mem_ctrls.numReadWriteTurnArounds         2033                       # Number of turnarounds from READ to WRITE
system.mem_ctrls.numWriteReadTurnArounds         2033                       # Number of turnarounds from WRITE to READ
system.mem_ctrls.numStayReadState              154292                       # Number of times bus staying in READ state
system.mem_ctrls.numStayWriteState              34242                       # Number of times bus staying in WRITE state
system.mem_ctrls.readReqs                       45252                       # Number of read requests accepted
system.mem_ctrls.writeReqs                      36245                       # Number of write requests accepted
system.mem_ctrls.readBursts                     45252                       # Number of DRAM read bursts, including those serviced by the write queue
system.mem_ctrls.writeBursts                    36245                       # Number of DRAM write bursts, including those merged in the write queue
system.mem_ctrls.servicedByWrQ                     13                       # Number of DRAM read bursts serviced by the write queue
system.mem_ctrls.mergedWrBursts                     0                       # Number of DRAM write bursts merged with an existing one
system.mem_ctrls.neitherReadNorWriteReqs            0                       # Number of requests that are neither read nor write
system.mem_ctrls.perBankRdBursts::0              2743                       # Per bank write bursts
system.mem_ctrls.perBankRdBursts::1              2715                       # Per bank write bursts
system.mem_ctrls.perBankRdBursts::2              3001                       # Per bank write bursts
system.mem_ctrls.perBankRdBursts::3              3266                       # Per bank write bursts
system.mem_ctrls.perBankRdBursts::4              2913                       # Per bank write bursts
system.mem_ctrls.perBankRdBursts::5              2893                       # Per bank write bursts
system.mem_ctrls.perBankRdBursts::6              2866                       # Per bank write bursts
system.mem_ctrls.perBankRdBursts::7              2879                       # Per bank write bursts
system.mem_ctrls.perBankRdBursts::8              2857                       # Per bank write bursts
system.mem_ctrls.perBankRdBursts::9              2716                       # Per bank write bursts
system.mem_ctrls.perBankRdBursts::10             2791                       # Per bank write bursts
system.mem_ctrls.perBankRdBursts::11             2731                       # Per bank write bursts
system.mem_ctrls.perBankRdBursts::12             2699                       # Per bank write bursts
system.mem_ctrls.perBankRdBursts::13             2737                       # Per bank write bursts
system.mem_ctrls.perBankRdBursts::14             2703                       # Per bank write bursts
system.mem_ctrls.perBankRdBursts::15             2729                       # Per bank write bursts
system.mem_ctrls.perBankWrBursts::0              2182                       # Per bank write bursts
system.mem_ctrls.perBankWrBursts::1              2171                       # Per bank write bursts
system.mem_ctrls.perBankWrBursts::2              2390                       # Per bank write bursts
system.mem_ctrls.perBankWrBursts::3              2582                       # Per bank write bursts
system.mem_ctrls.perBankWrBursts::4              2318                       # Per bank write bursts
system.mem_ctrls.perBankWrBursts::5              2327                       # Per bank write bursts
system.mem_ctrls.perBankWrBursts::6              2324                       # Per bank write bursts
system.mem_ctrls.perBankWrBursts::7              2298                       # Per bank write bursts
system.mem_ctrls.perBankWrBursts::8              2277                       # Per bank write bursts
system.mem_ctrls.perBankWrBursts::9              2183                       # Per bank write bursts
system.mem_ctrls.perBankWrBursts::10             2212                       # Per bank write bursts
system.mem_ctrls.perBankWrBursts::11             2201                       # Per bank write bursts
system.mem_ctrls.perBankWrBursts::12             2186                       # Per bank write bursts
system.mem_ctrls.perBankWrBursts::13             2205                       # Per bank write bursts
system.mem_ctrls.perBankWrBursts::14             2182                       # Per bank write bursts
system.mem_ctrls.perBankWrBursts::15             2188                       # Per bank write bursts
system.mem_ctrls.avgRdQLen                       1.06                       # Average read queue length when enqueuing
system.mem_ctrls.avgWrQLen                      24.10                       # Average write queue length when enqueuing
system.mem_ctrls.totQLat                    856539750                       # Total ticks spent queuing
system.mem_ctrls.totBusLat                  226195000                       # Total ticks spent in databus transfers
system.mem_ctrls.totMemAccLat              1704771000                       # Total ticks spent from burst creation until serviced by the DRAM
system.mem_ctrls.avgQLat                     18933.66                       # Average queueing delay per DRAM burst
system.mem_ctrls.avgBusLat                    5000.00                       # Average bus latency per DRAM burst
system.mem_ctrls.avgMemAccLat                37683.66                       # Average memory access latency per DRAM burst
system.mem_ctrls.numRdRetry                         0                       # Number of times read queue was full causing retry
system.mem_ctrls.numWrRetry                         0                       # Number of times write queue was full causing retry
system.mem_ctrls.readRowHits                    18846                       # Number of row buffer hits during reads
system.mem_ctrls.writeRowHits                   27108                       # Number of row buffer hits during writes
system.mem_ctrls.readRowHitRate                 41.66                       # Row buffer hit rate for reads
system.mem_ctrls.writeRowHitRate                74.79                       # Row buffer hit rate for writes
system.mem_ctrls.readPktSize::0                     0                       # Read request sizes (log2)
system.mem_ctrls.readPktSize::1                     0                       # Read request sizes (log2)
system.mem_ctrls.readPktSize::2                     0                       # Read request sizes (log2)
system.mem_ctrls.readPktSize::3                     0                       # Read request sizes (log2)
system.mem_ctrls.readPktSize::4                     0                       # Read request sizes (log2)
system.mem_ctrls.readPktSize::5                     0                       # Read request sizes (log2)
system.mem_ctrls.readPktSize::6                 45252                       # Read request sizes (log2)
system.mem_ctrls.writePktSize::0                    0                       # Write request sizes (log2)
system.mem_ctrls.writePktSize::1                    0                       # Write request sizes (log2)
system.mem_ctrls.writePktSize::2                    0                       # Write request sizes (log2)
system.mem_ctrls.writePktSize::3                    0                       # Write request sizes (log2)
system.mem_ctrls.writePktSize::4                    0                       # Write request sizes (log2)
system.mem_ctrls.writePktSize::5                    0                       # Write request sizes (log2)
system.mem_ctrls.writePktSize::6                36245                       # Write request sizes (log2)
system.mem_ctrls.rdQLenPdf::0                   43402                       # What read queue length does an incoming req see
system.mem_ctrls.rdQLenPdf::1                    1829                       # What read queue length does an incoming req see
system.mem_ctrls.rdQLenPdf::2                       8                       # What read queue length does an incoming req see
system.mem_ctrls.rdQLenPdf::3                       0                       # What read queue length does an incoming req see
system.mem_ctrls.rdQLenPdf::4                       0                       # What read queue length does an incoming req see
system.mem_ctrls.rdQLenPdf::5                       0                       # What read queue length does an incoming req see
system.mem_ctrls.rdQLenPdf::6                       0                       # What read queue length does an incoming req see
system.mem_ctrls.rdQLenPdf::7                       0                       # What read queue length does an incoming req see
system.mem_ctrls.rdQLenPdf::8                       0                       # What read queue length does an incoming req see
system.mem_ctrls.rdQLenPdf::9                       0                       # What read queue length does an incoming req see
system.mem_ctrls.rdQLenPdf::10                      0                       # What read queue length does an incoming req see
system.mem_ctrls.rdQLenPdf::11                      0                       # What read queue length does an incoming req see
system.mem_ctrls.rdQLenPdf::12                      0                       # What read queue length does an incoming req see
system.mem_ctrls.rdQLenPdf::13                      0                       # What read queue length does an incoming req see
system.mem_ctrls.rdQLenPdf::14                      0                       # What read queue length does an incoming req see
system.mem_ctrls.rdQLenPdf::15                      0                       # What read queue length does an incoming req see
system.mem_ctrls.rdQLenPdf::16                      0                       # What read queue length does an incoming req see
system.mem_ctrls.rdQLenPdf::17                      0                       # What read queue length does an incoming req see
system.mem_ctrls.rdQLenPdf::18                      0                       # What read queue length does an incoming req see
system.mem_ctrls.rdQLenPdf::19                      0                       # What read queue length does an incoming req see
system.mem_ctrls.rdQLenPdf::20                      0                       # What read queue length does an incoming req see
system.mem_ctrls.rdQLenPdf::21                      0                       # What read queue length does an incoming req see
system.mem_ctrls.rdQLenPdf::22                      0                       # What read queue length does an incoming req see
system.mem_ctrls.rdQLenPdf::23                      0                       # What read queue length does an incoming req see
system.mem_ctrls.rdQLenPdf::24                      0                       # What read queue length does an incoming req see
system.mem_ctrls.rdQLenPdf::25                      0                       # What read queue length does an incoming req see
system.mem_ctrls.rdQLenPdf::26                      0                       # What read queue length does an incoming req see
system.mem_ctrls.rdQLenPdf::27                      0                       # What read queue length does an incoming req see
system.mem_ctrls.rdQLenPdf::28                      0                       # What read queue length does an incoming req see
system.mem_ctrls.rdQLenPdf::29                      0                       # What read queue length does an incoming req see
system.mem_ctrls.rdQLenPdf::30                      0                       # What read queue length does an incoming req see
system.mem_ctrls.rdQLenPdf::31                      0                       # What read queue length does an incoming req see
system.mem_ctrls.wrQLenPdf::0                       1                       # What write queue length does an incoming req see
system.mem_ctrls.wrQLenPdf::1                       1                       # What write queue length does an incoming req see
system.mem_ctrls.wrQLenPdf::2                       1                       # What write queue length does an incoming req see
system.mem_ctrls.wrQLenPdf::3                       1                       # What write queue length does an incoming req see
system.mem_ctrls.wrQLenPdf::4                       1                       # What write queue length does an incoming req see
system.mem_ctrls.wrQLenPdf::5                       1                       # What write queue length does an incoming req see
system.mem_ctrls.wrQLenPdf::6                       1                       # What write queue length does an incoming req see
system.mem_ctrls.wrQLenPdf::7                       1                       # What write queue length does an incoming req see
system.mem_ctrls.wrQLenPdf::8                       1                       # What write queue length does an incoming req see
system.mem_ctrls.wrQLenPdf::9                       1                       # What write queue length does an incoming req see
system.mem_ctrls.wrQLenPdf::10                      1                       # What write queue length does an incoming req see
system.mem_ctrls.wrQLenPdf::11                      1                       # What write queue length does an incoming req see
system.mem_ctrls.wrQLenPdf::12                      1                       # What write queue length does an incoming req see
system.mem_ctrls.wrQLenPdf::13                      1                       # What write queue length does an incoming req see
system.mem_ctrls.wrQLenPdf::14                      1                       # What write queue length does an incoming req see
system.mem_ctrls.wrQLenPdf::15                   1758                       # What write queue length does an incoming req see
system.mem_ctrls.wrQLenPdf::16                   1760                       # What write queue length does an incoming req see
system.mem_ctrls.wrQLenPdf::17                   2033                       # What write queue length does an incoming req see
system.mem_ctrls.wrQLenPdf::18                   2037                       # What write queue length does an incoming req see
system.mem_ctrls.wrQLenPdf::19                   2037                       # What write queue length does an incoming req see
system.mem_ctrls.wrQLenPdf::20                   2048                       # What write queue length does an incoming req see
system.mem_ctrls.wrQLenPdf::21                   2042                       # What write queue length does an incoming req see
system.mem_ctrls.wrQLenPdf::22                   2047                       # What write queue length does an incoming req see
system.mem_ctrls.wrQLenPdf::23                   2063                       # What write queue length does an incoming req see
system.mem_ctrls.wrQLenPdf::24                   2045                       # What write queue length does an incoming req see
system.mem_ctrls.wrQLenPdf::25                   2053                       # What write queue length does an incoming req see
system.mem_ctrls.wrQLenPdf::26                   2039                       # What write queue length does an incoming req see
system.mem_ctrls.wrQLenPdf::27                   2053                       # What write queue length does an incoming req see
system.mem_ctrls.wrQLenPdf::28                   2071                       # What write queue length does an incoming req see
system.mem_ctrls.wrQLenPdf::29                   2041                       # What write queue length does an incoming req see
system.mem_ctrls.wrQLenPdf::30                   2037                       # What write queue length does an incoming req see
system.mem_ctrls.wrQLenPdf::31                   2033                       # What write queue length does an incoming req see
system.mem_ctrls.wrQLenPdf::32                   2033                       # What write queue length does an incoming req see
system.mem_ctrls.wrQLenPdf::33                      0                       # What write queue length does an incoming req see
system.mem_ctrls.wrQLenPdf::34                      0                       # What write queue length does an incoming req see
system.mem_ctrls.wrQLenPdf::35                      0                       # What write queue length does an incoming req see
system.mem_ctrls.wrQLenPdf::36                      0                       # What write queue length does an incoming req see
system.mem_ctrls.wrQLenPdf::37                      0                       # What write queue length does an incoming req see
system.mem_ctrls.wrQLenPdf::38                      0                       # What write queue length does an incoming req see
system.mem_ctrls.wrQLenPdf::39                      0                       # What write queue length does an incoming req see
system.mem_ctrls.wrQLenPdf::40                      0                       # What write queue length does an incoming req see
system.mem_ctrls.wrQLenPdf::41                      0                       # What write queue length does an incoming req see
system.mem_ctrls.wrQLenPdf::42                      0                       # What write queue length does an incoming req see
system.mem_ctrls.wrQLenPdf::43                      0                       # What write queue length does an incoming req see
system.mem_ctrls.wrQLenPdf::44                      0                       # What write queue length does an incoming req see
system.mem_ctrls.wrQLenPdf::45                      0                       # What write queue length does an incoming req see
system.mem_ctrls.wrQLenPdf::46                      0                       # What write queue length does an incoming req see
system.mem_ctrls.wrQLenPdf::47                      0                       # What write queue length does an incoming req see
system.mem_ctrls.wrQLenPdf::48                      0                       # What write queue length does an incoming req see
system.mem_ctrls.wrQLenPdf::49                      0                       # What write queue length does an incoming req see
system.mem_ctrls.wrQLenPdf::50                      0                       # What write queue length does an incoming req see
system.mem_ctrls.wrQLenPdf::51                      0                       # What write queue length does an incoming req see
system.mem_ctrls.wrQLenPdf::52                      0                       # What write queue length does an incoming req see
system.mem_ctrls.wrQLenPdf::53                      0                       # What write queue length does an incoming req see
system.mem_ctrls.wrQLenPdf::54                      0                       # What write queue length does an incoming req see
system.mem_ctrls.wrQLenPdf::55                      0                       # What write queue length does an incoming req see
system.mem_ctrls.wrQLenPdf::56                      0                       # What write queue length does an incoming req see
system.mem_ctrls.wrQLenPdf::57                      0                       # What write queue length does an incoming req see
system.mem_ctrls.wrQLenPdf::58                      0                       # What write queue length does an incoming req see
system.mem_ctrls.wrQLenPdf::59                      0                       # What write queue length does an incoming req see
system.mem_ctrls.wrQLenPdf::60                      0                       # What write queue length does an incoming req see
system.mem_ctrls.wrQLenPdf::61                      0                       # What write queue length does an incoming req see
system.mem_ctrls.wrQLenPdf::62                      0                       # What write queue length does an incoming req see
system.mem_ctrls.wrQLenPdf::63                      0                       # What write queue length does an incoming req see
system.mem_ctrls.bytesPerActivate::samples        35510                       # Bytes accessed per row activation
system.mem_ctrls.bytesPerActivate::mean    146.823317                       # Bytes accessed per row activation
system.mem_ctrls.bytesPerActivate::gmean   106.350001                       # Bytes accessed per row activation
system.mem_ctrls.bytesPerActivate::stdev   172.644279                       # Bytes accessed per row activation
system.mem_ctrls.bytesPerActivate::0-127        19398     54.63%     54.63% # Bytes accessed per row activation
system.mem_ctrls.bytesPerActivate::128-255        11435     32.20%     86.83% # Bytes accessed per row activation
system.mem_ctrls.bytesPerActivate::256-383         2189      6.16%     92.99% # Bytes accessed per row activation
system.mem_ctrls.bytesPerActivate::384-511          732      2.06%     95.05% # Bytes accessed per row activation
system.mem_ctrls.bytesPerActivate::512-639          350      0.99%     96.04% # Bytes accessed per row activation
system.mem_ctrls.bytesPerActivate::640-767          311      0.88%     96.92% # Bytes accessed per row activation
system.mem_ctrls.bytesPerActivate::768-895          288      0.81%     97.73% # Bytes accessed per row activation
system.mem_ctrls.bytesPerActivate::896-1023          343      0.97%     98.69% # Bytes accessed per row activation
system.mem_ctrls.bytesPerActivate::1024-1151          464      1.31%    100.00% # Bytes accessed per row activation
system.mem_ctrls.bytesPerActivate::total        35510                       # Bytes accessed per row activation
system.mem_ctrls.rdPerTurnAround::samples         2033                       # Reads before turning the bus around for writes
system.mem_ctrls.rdPerTurnAround::mean      22.250369                       # Reads before turning the bus around for writes
system.mem_ctrls.rdPerTurnAround::gmean     19.172958                       # Reads before turning the bus around for writes
system.mem_ctrls.rdPerTurnAround::stdev     91.350507                       # Reads before turning the bus around for writes
system.mem_ctrls.rdPerTurnAround::0-127          2030     99.85%     99.85% # Reads before turning the bus around for writes
system.mem_ctrls.rdPerTurnAround::384-511            1      0.05%     99.90% # Reads before turning the bus around for writes
[...]
system.cpu.icache.ReadReq_mshr_misses::.cpu.inst          926                       # number of ReadReq MSHR misses
system.cpu.icache.ReadReq_mshr_misses::total          926                       # number of ReadReq MSHR misses
system.cpu.icache.ReadReq_mshr_miss_latency::.cpu.inst     61092000                       # number of ReadReq MSHR miss cycles
system.cpu.icache.ReadReq_mshr_miss_latency::total     61092000                       # number of ReadReq MSHR miss cycles
system.cpu.icache.ReadReq_mshr_miss_rate::.cpu.inst     0.000034                       # mshr miss rate for ReadReq accesses
system.cpu.icache.ReadReq_mshr_miss_rate::total     0.000034                       # mshr miss rate for ReadReq accesses
system.cpu.icache.ReadReq_avg_mshr_miss_latency::.cpu.inst 65974.082073                       # average ReadReq mshr miss latency
system.cpu.icache.ReadReq_avg_mshr_miss_latency::total 65974.082073                       # average ReadReq mshr miss latency
system.cpu.icache.tags.pwrStateResidencyTicks::UNDEFINED 109759669000                       # Cumulative time (in ticks) in various power states
system.cpu.icache.tags.tagsinuse           441.455104                       # Cycle average of tags in use
system.cpu.icache.tags.total_refs            27000823                       # Total number of references to valid blocks.
system.cpu.icache.tags.sampled_refs               926                       # Sample count of references to valid blocks.
system.cpu.icache.tags.avg_refs          29158.556156                       # Average number of references to valid blocks.
system.cpu.icache.tags.warmup_cycle            108000                       # Cycle when the warmup percentage was hit.
system.cpu.icache.tags.occ_blocks::.cpu.inst   441.455104                       # Average occupied blocks per requestor
system.cpu.icache.tags.occ_percent::.cpu.inst     0.431109                       # Average percentage of cache occupancy
system.cpu.icache.tags.occ_percent::total     0.431109                       # Average percentage of cache occupancy
system.cpu.icache.tags.occ_task_id_blocks::1024          442                       # Occupied blocks per task id
system.cpu.icache.tags.age_task_id_blocks_1024::1            3                       # Occupied blocks per task id
system.cpu.icache.tags.age_task_id_blocks_1024::4          439                       # Occupied blocks per task id
system.cpu.icache.tags.occ_task_id_percent::1024     0.431641                       # Percentage of cache occupancy per task id
system.cpu.icache.tags.tag_accesses          27001749                       # Number of tag accesses
system.cpu.icache.tags.data_accesses         27001749                       # Number of data accesses
system.cpu.dtb.walker.pwrStateResidencyTicks::UNDEFINED 109759669000                       # Cumulative time (in ticks) in various power states
system.cpu.dtb.stage2_mmu.stage2_tlb.walker.pwrStateResidencyTicks::UNDEFINED 109759669000                       # Cumulative time (in ticks) in various power states
system.cpu.dcache.pwrStateResidencyTicks::UNDEFINED 109759669000                       # Cumulative time (in ticks) in various power states
system.cpu.dcache.demand_hits::.cpu.data     35090555                       # number of demand (read+write) hits
system.cpu.dcache.demand_hits::total         35090555                       # number of demand (read+write) hits
system.cpu.dcache.overall_hits::.cpu.data     35093632                       # number of overall hits
system.cpu.dcache.overall_hits::total        35093632                       # number of overall hits
system.cpu.dcache.demand_misses::.cpu.data        80077                       # number of demand (read+write) misses
system.cpu.dcache.demand_misses::total          80077                       # number of demand (read+write) misses
system.cpu.dcache.overall_misses::.cpu.data        80129                       # number of overall misses
system.cpu.dcache.overall_misses::total         80129                       # number of overall misses
system.cpu.dcache.demand_miss_latency::.cpu.data   6885778000                       # number of demand (read+write) miss cycles
system.cpu.dcache.demand_miss_latency::total   6885778000                       # number of demand (read+write) miss cycles
system.cpu.dcache.overall_miss_latency::.cpu.data   6885778000                       # number of overall miss cycles
system.cpu.dcache.overall_miss_latency::total   6885778000                       # number of overall miss cycles
system.cpu.dcache.demand_accesses::.cpu.data     35170632                       # number of demand (read+write) accesses
system.cpu.dcache.demand_accesses::total     35170632                       # number of demand (read+write) accesses
system.cpu.dcache.overall_accesses::.cpu.data     35173761                       # number of overall (read+write) accesses
system.cpu.dcache.overall_accesses::total     35173761                       # number of overall (read+write) accesses
system.cpu.dcache.demand_miss_rate::.cpu.data     0.002277                       # miss rate for demand accesses
system.cpu.dcache.demand_miss_rate::total     0.002277                       # miss rate for demand accesses
system.cpu.dcache.overall_miss_rate::.cpu.data     0.002278                       # miss rate for overall accesses
system.cpu.dcache.overall_miss_rate::total     0.002278                       # miss rate for overall accesses
system.cpu.dcache.demand_avg_miss_latency::.cpu.data 85989.460145                       # average overall miss latency
system.cpu.dcache.demand_avg_miss_latency::total 85989.460145                       # average overall miss latency
system.cpu.dcache.overall_avg_miss_latency::.cpu.data 85933.656978                       # average overall miss latency
system.cpu.dcache.overall_avg_miss_latency::total 85933.656978                       # average overall miss latency
system.cpu.dcache.blocked_cycles::no_mshrs            0                       # number of cycles access was blocked
system.cpu.dcache.blocked_cycles::no_targets            0                       # number of cycles access was blocked
system.cpu.dcache.blocked::no_mshrs                 0                       # number of cycles access was blocked
system.cpu.dcache.blocked::no_targets               0                       # number of cycles access was blocked
system.cpu.dcache.avg_blocked_cycles::no_mshrs          nan                       # average number of cycles each access was blocked
system.cpu.dcache.avg_blocked_cycles::no_targets          nan                       # average number of cycles each access was blocked
system.cpu.dcache.writebacks::.writebacks        50120                       # number of writebacks
system.cpu.dcache.writebacks::total             50120                       # number of writebacks
system.cpu.dcache.demand_mshr_hits::.cpu.data        22891                       # number of demand (read+write) MSHR hits
system.cpu.dcache.demand_mshr_hits::total        22891                       # number of demand (read+write) MSHR hits
system.cpu.dcache.overall_mshr_hits::.cpu.data        22891                       # number of overall MSHR hits
system.cpu.dcache.overall_mshr_hits::total        22891                       # number of overall MSHR hits
system.cpu.dcache.demand_mshr_misses::.cpu.data        57186                       # number of demand (read+write) MSHR misses
system.cpu.dcache.demand_mshr_misses::total        57186                       # number of demand (read+write) MSHR misses
system.cpu.dcache.overall_mshr_misses::.cpu.data        57234                       # number of overall MSHR misses
system.cpu.dcache.overall_mshr_misses::total        57234                       # number of overall MSHR misses
system.cpu.dcache.demand_mshr_miss_latency::.cpu.data   5317549000                       # number of demand (read+write) MSHR miss cycles
system.cpu.dcache.demand_mshr_miss_latency::total   5317549000                       # number of demand (read+write) MSHR miss cycles
system.cpu.dcache.overall_mshr_miss_latency::.cpu.data   5320236000                       # number of overall MSHR miss cycles
system.cpu.dcache.overall_mshr_miss_latency::total   5320236000                       # number of overall MSHR miss cycles
system.cpu.dcache.demand_mshr_miss_rate::.cpu.data     0.001626                       # mshr miss rate for demand accesses
system.cpu.dcache.demand_mshr_miss_rate::total     0.001626                       # mshr miss rate for demand accesses
system.cpu.dcache.overall_mshr_miss_rate::.cpu.data     0.001627                       # mshr miss rate for overall accesses
system.cpu.dcache.overall_mshr_miss_rate::total     0.001627                       # mshr miss rate for overall accesses
system.cpu.dcache.demand_avg_mshr_miss_latency::.cpu.data 92986.902389                       # average overall mshr miss latency
system.cpu.dcache.demand_avg_mshr_miss_latency::total 92986.902389                       # average overall mshr miss latency
system.cpu.dcache.overall_avg_mshr_miss_latency::.cpu.data 92955.865395                       # average overall mshr miss latency
system.cpu.dcache.overall_avg_mshr_miss_latency::total 92955.865395                       # average overall mshr miss latency
system.cpu.dcache.replacements                  56722                       # number of replacements
system.cpu.dcache.ReadReq_hits::.cpu.data     20878064                       # number of ReadReq hits
system.cpu.dcache.ReadReq_hits::total        20878064                       # number of ReadReq hits
system.cpu.dcache.ReadReq_misses::.cpu.data        25582                       # number of ReadReq misses
system.cpu.dcache.ReadReq_misses::total         25582                       # number of ReadReq misses
system.cpu.dcache.ReadReq_miss_latency::.cpu.data   1322071000                       # number of ReadReq miss cycles
system.cpu.dcache.ReadReq_miss_latency::total   1322071000                       # number of ReadReq miss cycles
system.cpu.dcache.ReadReq_accesses::.cpu.data     20903646                       # number of ReadReq accesses(hits+misses)
system.cpu.dcache.ReadReq_accesses::total     20903646                       # number of ReadReq accesses(hits+misses)
system.cpu.dcache.ReadReq_miss_rate::.cpu.data     0.001224                       # miss rate for ReadReq accesses
system.cpu.dcache.ReadReq_miss_rate::total     0.001224                       # miss rate for ReadReq accesses
system.cpu.dcache.ReadReq_avg_miss_latency::.cpu.data 51679.735752                       # average ReadReq miss latency
system.cpu.dcache.ReadReq_avg_miss_latency::total 51679.735752                       # average ReadReq miss latency
system.cpu.dcache.ReadReq_mshr_hits::.cpu.data         6362                       # number of ReadReq MSHR hits
system.cpu.dcache.ReadReq_mshr_hits::total         6362                       # number of ReadReq MSHR hits
system.cpu.dcache.ReadReq_mshr_misses::.cpu.data        19220                       # number of ReadReq MSHR misses
system.cpu.dcache.ReadReq_mshr_misses::total        19220                       # number of ReadReq MSHR misses
system.cpu.dcache.ReadReq_mshr_miss_latency::.cpu.data   1079620000                       # number of ReadReq MSHR miss cycles
system.cpu.dcache.ReadReq_mshr_miss_latency::total   1079620000                       # number of ReadReq MSHR miss cycles
system.cpu.dcache.ReadReq_mshr_miss_rate::.cpu.data     0.000919                       # mshr miss rate for ReadReq accesses
system.cpu.dcache.ReadReq_mshr_miss_rate::total     0.000919                       # mshr miss rate for ReadReq accesses
system.cpu.dcache.ReadReq_avg_mshr_miss_latency::.cpu.data 56171.696150                       # average ReadReq mshr miss latency
system.cpu.dcache.ReadReq_avg_mshr_miss_latency::total 56171.696150                       # average ReadReq mshr miss latency
system.cpu.dcache.WriteReq_hits::.cpu.data     14212491                       # number of WriteReq hits
system.cpu.dcache.WriteReq_hits::total       14212491                       # number of WriteReq hits
system.cpu.dcache.WriteReq_misses::.cpu.data        54495                       # number of WriteReq misses
system.cpu.dcache.WriteReq_misses::total        54495                       # number of WriteReq misses
system.cpu.dcache.WriteReq_miss_latency::.cpu.data   5563707000                       # number of WriteReq miss cycles
system.cpu.dcache.WriteReq_miss_latency::total   5563707000                       # number of WriteReq miss cycles
system.cpu.dcache.WriteReq_accesses::.cpu.data     14266986                       # number of WriteReq accesses(hits+misses)
system.cpu.dcache.WriteReq_accesses::total     14266986                       # number of WriteReq accesses(hits+misses)
system.cpu.dcache.WriteReq_miss_rate::.cpu.data     0.003820                       # miss rate for WriteReq accesses
system.cpu.dcache.WriteReq_miss_rate::total     0.003820                       # miss rate for WriteReq accesses
system.cpu.dcache.WriteReq_avg_miss_latency::.cpu.data 102095.733554                       # average WriteReq miss latency
system.cpu.dcache.WriteReq_avg_miss_latency::total 102095.733554                       # average WriteReq miss latency
system.cpu.dcache.WriteReq_mshr_hits::.cpu.data        16529                       # number of WriteReq MSHR hits
system.cpu.dcache.WriteReq_mshr_hits::total        16529                       # number of WriteReq MSHR hits
system.cpu.dcache.WriteReq_mshr_misses::.cpu.data        37966                       # number of WriteReq MSHR misses
system.cpu.dcache.WriteReq_mshr_misses::total        37966                       # number of WriteReq MSHR misses
system.cpu.dcache.WriteReq_mshr_miss_latency::.cpu.data   4237929000                       # number of WriteReq MSHR miss cycles
system.cpu.dcache.WriteReq_mshr_miss_latency::total   4237929000                       # number of WriteReq MSHR miss cycles
system.cpu.dcache.WriteReq_mshr_miss_rate::.cpu.data     0.002661                       # mshr miss rate for WriteReq accesses
system.cpu.dcache.WriteReq_mshr_miss_rate::total     0.002661                       # mshr miss rate for WriteReq accesses
system.cpu.dcache.WriteReq_avg_mshr_miss_latency::.cpu.data 111624.321762                       # average WriteReq mshr miss latency
system.cpu.dcache.WriteReq_avg_mshr_miss_latency::total 111624.321762                       # average WriteReq mshr miss latency
system.cpu.dcache.SoftPFReq_hits::.cpu.data         3077                       # number of SoftPFReq hits
system.cpu.dcache.SoftPFReq_hits::total          3077                       # number of SoftPFReq hits
system.cpu.dcache.SoftPFReq_misses::.cpu.data           52                       # number of SoftPFReq misses
system.cpu.dcache.SoftPFReq_misses::total           52                       # number of SoftPFReq misses
system.cpu.dcache.SoftPFReq_accesses::.cpu.data         3129                       # number of SoftPFReq accesses(hits+misses)
system.cpu.dcache.SoftPFReq_accesses::total         3129                       # number of SoftPFReq accesses(hits+misses)
system.cpu.dcache.SoftPFReq_miss_rate::.cpu.data     0.016619                       # miss rate for SoftPFReq accesses
system.cpu.dcache.SoftPFReq_miss_rate::total     0.016619                       # miss rate for SoftPFReq accesses
system.cpu.dcache.SoftPFReq_mshr_misses::.cpu.data           48                       # number of SoftPFReq MSHR misses
system.cpu.dcache.SoftPFReq_mshr_misses::total           48                       # number of SoftPFReq MSHR misses
system.cpu.dcache.SoftPFReq_mshr_miss_latency::.cpu.data      2687000                       # number of SoftPFReq MSHR miss cycles
system.cpu.dcache.SoftPFReq_mshr_miss_latency::total      2687000                       # number of SoftPFReq MSHR miss cycles
system.cpu.dcache.SoftPFReq_mshr_miss_rate::.cpu.data     0.015340                       # mshr miss rate for SoftPFReq accesses
system.cpu.dcache.SoftPFReq_mshr_miss_rate::total     0.015340                       # mshr miss rate for SoftPFReq accesses
system.cpu.dcache.SoftPFReq_avg_mshr_miss_latency::.cpu.data 55979.166667                       # average SoftPFReq mshr miss latency
system.cpu.dcache.SoftPFReq_avg_mshr_miss_latency::total 55979.166667                       # average SoftPFReq mshr miss latency
system.cpu.dcache.LoadLockedReq_hits::.cpu.data        85610                       # number of LoadLockedReq hits
system.cpu.dcache.LoadLockedReq_hits::total        85610                       # number of LoadLockedReq hits
system.cpu.dcache.LoadLockedReq_accesses::.cpu.data        85610                       # number of LoadLockedReq accesses(hits+misses)
system.cpu.dcache.LoadLockedReq_accesses::total        85610                       # number of LoadLockedReq accesses(hits+misses)
system.cpu.dcache.StoreCondReq_hits::.cpu.data        85610                       # number of StoreCondReq hits
system.cpu.dcache.StoreCondReq_hits::total        85610                       # number of StoreCondReq hits
system.cpu.dcache.StoreCondReq_accesses::.cpu.data        85610                       # number of StoreCondReq accesses(hits+misses)
system.cpu.dcache.StoreCondReq_accesses::total        85610                       # number of StoreCondReq accesses(hits+misses)
system.cpu.dcache.tags.pwrStateResidencyTicks::UNDEFINED 109759669000                       # Cumulative time (in ticks) in various power states
system.cpu.dcache.tags.tagsinuse           511.319330                       # Cycle average of tags in use
system.cpu.dcache.tags.total_refs            35322086                       # Total number of references to valid blocks.
system.cpu.dcache.tags.sampled_refs             57234                       # Sample count of references to valid blocks.
system.cpu.dcache.tags.avg_refs            617.152147                       # Average number of references to valid blocks.
system.cpu.dcache.tags.warmup_cycle            223000                       # Cycle when the warmup percentage was hit.
system.cpu.dcache.tags.occ_blocks::.cpu.data   511.319330                       # Average occupied blocks per requestor
system.cpu.dcache.tags.occ_percent::.cpu.data     0.998671                       # Average percentage of cache occupancy
system.cpu.dcache.tags.occ_percent::total     0.998671                       # Average percentage of cache occupancy
system.cpu.dcache.tags.occ_task_id_blocks::1024          512                       # Occupied blocks per task id
system.cpu.dcache.tags.age_task_id_blocks_1024::0            3                       # Occupied blocks per task id
system.cpu.dcache.tags.age_task_id_blocks_1024::1           30                       # Occupied blocks per task id
system.cpu.dcache.tags.age_task_id_blocks_1024::2          275                       # Occupied blocks per task id
system.cpu.dcache.tags.age_task_id_blocks_1024::3          171                       # Occupied blocks per task id
system.cpu.dcache.tags.age_task_id_blocks_1024::4           33                       # Occupied blocks per task id
system.cpu.dcache.tags.occ_task_id_percent::1024            1                       # Percentage of cache occupancy per task id
system.cpu.dcache.tags.tag_accesses         141437158                       # Number of tag accesses
system.cpu.dcache.tags.data_accesses        141437158                       # Number of data accesses
system.cpu.itb.walker.pwrStateResidencyTicks::UNDEFINED 109759669000                       # Cumulative time (in ticks) in various power states
system.cpu.itb.stage2_mmu.stage2_tlb.walker.pwrStateResidencyTicks::UNDEFINED 109759669000                       # Cumulative time (in ticks) in various power states

---------- End Simulation Statistics   ----------
