
---------- Begin Simulation Statistics ----------
final_tick                               110208438000                       # Number of ticks from beginning of simulation (restored from checkpoints and never reset)
host_inst_rate                                 361261                       # Simulator instruction rate (inst/s)
host_mem_usage                                 708612                       # Number of bytes of host memory used
host_op_rate                                   394278                       # Simulator op (including micro ops) rate (op/s)
host_seconds                                   276.81                       # Real time elapsed on the host
host_tick_rate                              398139685                       # Simulator tick rate (ticks/s)
sim_freq                                 1000000000000                       # Frequency of simulated ticks
sim_insts                                   100000000                       # Number of instructions simulated
sim_ops                                     109139424                       # Number of ops (including micro ops) simulated
sim_seconds                                  0.110208                       # Number of seconds simulated
sim_ticks                                110208438000                       # Number of ticks simulated
system.cpu.branchPred.BTBCorrect                    0                       # Number of correct BTB predictions (this stat may not work properly.
system.cpu.branchPred.BTBHitPct             92.962622                       # BTB Hit Percentage
system.cpu.branchPred.BTBHits                 8062955                       # Number of BTB hits
system.cpu.branchPred.BTBLookups              8673330                       # Number of BTB lookups
system.cpu.branchPred.RASInCorrect                482                       # Number of incorrect RAS predictions.
system.cpu.branchPred.condIncorrect             88897                       # Number of conditional branches incorrect
system.cpu.branchPred.condPredicted          15819117                       # Number of conditional branches predicted
system.cpu.branchPred.indirectHits             287880                       # Number of indirect target hits.
system.cpu.branchPred.indirectLookups          551181                       # Number of indirect predictor lookups.
system.cpu.branchPred.indirectMisses           263301                       # Number of indirect misses.
system.cpu.branchPred.lookups                19659513                       # Number of BP lookups
system.cpu.branchPred.usedRAS                 1050590                       # Number of times the RAS was used to get a target.
system.cpu.branchPredindirectMispredicted          987                       # Number of mispredicted indirect branches.
system.cpu.committedInsts                   100000000                       # Number of instructions committed
system.cpu.committedOps                     109139424                       # Number of ops (including micro ops) committed
system.cpu.cpi                               1.102084                       # CPI: cycles per instruction
system.cpu.discardedOps                        430910                       # Number of ops (including micro ops) which were discarded before commit
system.cpu.dtb.accesses                             0                       # DTB accesses
system.cpu.dtb.align_faults                         0                       # Number of TLB faults due to alignment restrictions
system.cpu.dtb.domain_faults                        0                       # Number of TLB faults due to domain restrictions
system.cpu.dtb.flush_entries                        0                       # Number of entries that have been flushed from TLB
system.cpu.dtb.flush_tlb                            0                       # Number of times complete TLB was flushed
system.cpu.dtb.flush_tlb_asid                       0                       # Number of times TLB was flushed by ASID
system.cpu.dtb.flush_tlb_mva                        0                       # Number of times TLB was flushed by MVA
system.cpu.dtb.flush_tlb_mva_asid                   0                       # Number of times TLB was flushed by MVA & ASID
system.cpu.dtb.hits                                 0                       # DTB hits
system.cpu.dtb.inst_accesses                        0                       # ITB inst accesses
system.cpu.dtb.inst_hits                            0                       # ITB inst hits
system.cpu.dtb.inst_misses                          0                       # ITB inst misses
system.cpu.dtb.misses                               0                       # DTB misses
system.cpu.dtb.perms_faults                         0                       # Number of TLB faults due to permissions restrictions
system.cpu.dtb.prefetch_faults                      0                       # Number of TLB faults due to prefetch
system.cpu.dtb.read_accesses                        0                       # DTB read accesses
system.cpu.dtb.read_hits                            0                       # DTB read hits
system.cpu.dtb.read_misses                          0                       # DTB read misses
system.cpu.dtb.stage2_mmu.stage2_tlb.accesses            0                       # DTB accesses
system.cpu.dtb.stage2_mmu.stage2_tlb.align_faults            0                       # Number of TLB faults due to alignment restrictions
system.cpu.dtb.stage2_mmu.stage2_tlb.domain_faults            0                       # Number of TLB faults due to domain restrictions
system.cpu.dtb.stage2_mmu.stage2_tlb.flush_entries            0                       # Number of entries that have been flushed from TLB
system.cpu.dtb.stage2_mmu.stage2_tlb.flush_tlb            0                       # Number of times complete TLB was flushed
system.cpu.dtb.stage2_mmu.stage2_tlb.flush_tlb_asid            0                       # Number of times TLB was flushed by ASID
system.cpu.dtb.stage2_mmu.stage2_tlb.flush_tlb_mva            0                       # Number of times TLB was flushed by MVA
system.cpu.dtb.stage2_mmu.stage2_tlb.flush_tlb_mva_asid            0                       # Number of times TLB was flushed by MVA & ASID
system.cpu.dtb.stage2_mmu.stage2_tlb.hits            0                       # DTB hits
system.cpu.dtb.stage2_mmu.stage2_tlb.inst_accesses            0                       # ITB inst accesses
system.cpu.dtb.stage2_mmu.stage2_tlb.inst_hits            0                       # ITB inst hits
system.cpu.dtb.stage2_mmu.stage2_tlb.inst_misses            0                       # ITB inst misses
system.cpu.dtb.stage2_mmu.stage2_tlb.misses            0                       # DTB misses
system.cpu.dtb.stage2_mmu.stage2_tlb.perms_faults            0                       # Number of TLB faults due to permissions restrictions
system.cpu.dtb.stage2_mmu.stage2_tlb.prefetch_faults            0                       # Number of TLB faults due to prefetch
system.cpu.dtb.stage2_mmu.stage2_tlb.read_accesses            0                       # DTB read accesses
system.cpu.dtb.stage2_mmu.stage2_tlb.read_hits            0                       # DTB read hits
system.cpu.dtb.stage2_mmu.stage2_tlb.read_misses            0                       # DTB read misses
system.cpu.dtb.stage2_mmu.stage2_tlb.walker.walkRequestOrigin_Requested::Data            0                       # Table walker requests started/completed, data/inst
system.cpu.dtb.stage2_mmu.stage2_tlb.walker.walkRequestOrigin_Requested::Inst            0                       # Table walker requests started/completed, data/inst
system.cpu.dtb.stage2_mmu.stage2_tlb.walker.walkRequestOrigin_Requested::total            0                       # Table walker requests started/completed, data/inst
system.cpu.dtb.stage2_mmu.stage2_tlb.walker.walkRequestOrigin_Completed::Data            0                       # Table walker requests started/completed, data/inst
system.cpu.dtb.stage2_mmu.stage2_tlb.walker.walkRequestOrigin_Completed::Inst            0                       # Table walker requests started/completed, data/inst
system.cpu.dtb.stage2_mmu.stage2_tlb.walker.walkRequestOrigin_Completed::total            0                       # Table walker requests started/completed, data/inst
system.cpu.dtb.stage2_mmu.stage2_tlb.walker.walkRequestOrigin::total            0                       # Table walker requests started/completed, data/inst
system.cpu.dtb.stage2_mmu.stage2_tlb.walker.walks            0                       # Table walker walks requested
system.cpu.dtb.stage2_mmu.stage2_tlb.write_accesses            0                       # DTB write accesses
system.cpu.dtb.stage2_mmu.stage2_tlb.write_hits            0                       # DTB write hits
system.cpu.dtb.stage2_mmu.stage2_tlb.write_misses            0                       # DTB write misses
system.cpu.dtb.walker.walkRequestOrigin_Requested::Data            0                       # Table walker requests started/completed, data/inst
system.cpu.dtb.walker.walkRequestOrigin_Requested::Inst            0                       # Table walker requests started/completed, data/inst
system.cpu.dtb.walker.walkRequestOrigin_Requested::total            0                       # Table walker requests started/completed, data/inst
system.cpu.dtb.walker.walkRequestOrigin_Completed::Data            0                       # Table walker requests started/completed, data/inst
system.cpu.dtb.walker.walkRequestOrigin_Completed::Inst            0                       # Table walker requests started/completed, data/inst
system.cpu.dtb.walker.walkRequestOrigin_Completed::total            0                       # Table walker requests started/completed, data/inst
system.cpu.dtb.walker.walkRequestOrigin::total            0                       # Table walker requests started/completed, data/inst
system.cpu.dtb.walker.walks                         0                       # Table walker walks requested
system.cpu.dtb.write_accesses                       0                       # DTB write accesses
system.cpu.dtb.write_hits                           0                       # DTB write hits
system.cpu.dtb.write_misses                         0                       # DTB write misses
system.cpu.fetch2.amo_instructions                  0                       # Number of memory atomic instructions successfully decoded
system.cpu.fetch2.fp_instructions                   0                       # Number of floating point instructions successfully decoded
system.cpu.fetch2.int_instructions           49083114                       # Number of integer instructions successfully decoded
system.cpu.fetch2.load_instructions          17523771                       # Number of memory load instructions successfully decoded
system.cpu.fetch2.store_instructions         10083652                       # Number of memory store instructions successfully decoded
system.cpu.fetch2.vec_instructions                  0                       # Number of SIMD instructions successfully decoded
system.cpu.idleCycles                         3653828                       # Total number of cycles that the object has spent stopped
system.cpu.ipc                               0.907372                       # IPC: instructions per cycle
system.cpu.itb.accesses                             0                       # DTB accesses
system.cpu.itb.align_faults                         0                       # Number of TLB faults due to alignment restrictions
system.cpu.itb.domain_faults                        0                       # Number of TLB faults due to domain restrictions
system.cpu.itb.flush_entries                        0                       # Number of entries that have been flushed from TLB
system.cpu.itb.flush_tlb                            0                       # Number of times complete TLB was flushed
system.cpu.itb.flush_tlb_asid                       0                       # Number of times TLB was flushed by ASID
system.cpu.itb.flush_tlb_mva                        0                       # Number of times TLB was flushed by MVA
system.cpu.itb.flush_tlb_mva_asid                   0                       # Number of times TLB was flushed by MVA & ASID
system.cpu.itb.hits                                 0                       # DTB hits
system.cpu.itb.inst_accesses                        0                       # ITB inst accesses
system.cpu.itb.inst_hits                            0                       # ITB inst hits
system.cpu.itb.inst_misses                          0                       # ITB inst misses
system.cpu.itb.misses                               0                       # DTB misses
system.cpu.itb.perms_faults                         0                       # Number of TLB faults due to permissions restrictions
system.cpu.itb.prefetch_faults                      0                       # Number of TLB faults due to prefetch
system.cpu.itb.read_accesses                        0                       # DTB read accesses
system.cpu.itb.read_hits                            0                       # DTB read hits
system.cpu.itb.read_misses                          0                       # DTB read misses
system.cpu.itb.stage2_mmu.stage2_tlb.accesses            0                       # DTB accesses
system.cpu.itb.stage2_mmu.stage2_tlb.align_faults            0                       # Number of TLB faults due to alignment restrictions
system.cpu.itb.stage2_mmu.stage2_tlb.domain_faults            0                       # Number of TLB faults due to domain restrictions
system.cpu.itb.stage2_mmu.stage2_tlb.flush_entries            0                       # Number of entries that have been flushed from TLB
system.cpu.itb.stage2_mmu.stage2_tlb.flush_tlb            0                       # Number of times complete TLB was flushed
system.cpu.itb.stage2_mmu.stage2_tlb.flush_tlb_asid            0                       # Number of times TLB was flushed by ASID
system.cpu.itb.stage2_mmu.stage2_tlb.flush_tlb_mva            0                       # Number of times TLB was flushed by MVA
system.cpu.itb.stage2_mmu.stage2_tlb.flush_tlb_mva_asid            0                       # Number of times TLB was flushed by MVA & ASID
system.cpu.itb.stage2_mmu.stage2_tlb.hits            0                       # DTB hits
system.cpu.itb.stage2_mmu.stage2_tlb.inst_accesses            0                       # ITB inst accesses
system.cpu.itb.stage2_mmu.stage2_tlb.inst_hits            0                       # ITB inst hits
system.cpu.itb.stage2_mmu.stage2_tlb.inst_misses            0                       # ITB inst misses
system.cpu.itb.stage2_mmu.stage2_tlb.misses            0                       # DTB misses
system.cpu.itb.stage2_mmu.stage2_tlb.perms_faults            0                       # Number of TLB faults due to permissions restrictions
system.cpu.itb.stage2_mmu.stage2_tlb.prefetch_faults            0                       # Number of TLB faults due to prefetch
system.cpu.itb.stage2_mmu.stage2_tlb.read_accesses            0                       # DTB read accesses
system.cpu.itb.stage2_mmu.stage2_tlb.read_hits            0                       # DTB read hits
system.cpu.itb.stage2_mmu.stage2_tlb.read_misses            0                       # DTB read misses
system.cpu.itb.stage2_mmu.stage2_tlb.walker.walkRequestOrigin_Requested::Data            0                       # Table walker requests started/completed, data/inst
system.cpu.itb.stage2_mmu.stage2_tlb.walker.walkRequestOrigin_Requested::Inst            0                       # Table walker requests started/completed, data/inst
system.cpu.itb.stage2_mmu.stage2_tlb.walker.walkRequestOrigin_Requested::total            0                       # Table walker requests started/completed, data/inst
system.cpu.itb.stage2_mmu.stage2_tlb.walker.walkRequestOrigin_Completed::Data            0                       # Table walker requests started/completed, data/inst
system.cpu.itb.stage2_mmu.stage2_tlb.walker.walkRequestOrigin_Completed::Inst            0                       # Table walker requests started/completed, data/inst
system.cpu.itb.stage2_mmu.stage2_tlb.walker.walkRequestOrigin_Completed::total            0                       # Table walker requests started/completed, data/inst
system.cpu.itb.stage2_mmu.stage2_tlb.walker.walkRequestOrigin::total            0                       # Table walker requests started/completed, data/inst
system.cpu.itb.stage2_mmu.stage2_tlb.walker.walks            0                       # Table walker walks requested
system.cpu.itb.stage2_mmu.stage2_tlb.write_accesses            0                       # DTB write accesses
system.cpu.itb.stage2_mmu.stage2_tlb.write_hits            0                       # DTB write hits
system.cpu.itb.stage2_mmu.stage2_tlb.write_misses            0                       # DTB write misses
system.cpu.itb.walker.walkRequestOrigin_Requested::Data            0                       # Table walker requests started/completed, data/inst
system.cpu.itb.walker.walkRequestOrigin_Requested::Inst            0                       # Table walker requests started/completed, data/inst
system.cpu.itb.walker.walkRequestOrigin_Requested::total            0                       # Table walker requests started/completed, data/inst
system.cpu.itb.walker.walkRequestOrigin_Completed::Data            0                       # Table walker requests started/completed, data/inst
system.cpu.itb.walker.walkRequestOrigin_Completed::Inst            0                       # Table walker requests started/completed, data/inst
system.cpu.itb.walker.walkRequestOrigin_Completed::total            0                       # Table walker requests started/completed, data/inst
system.cpu.itb.walker.walkRequestOrigin::total            0                       # Table walker requests started/completed, data/inst
system.cpu.itb.walker.walks                         0                       # Table walker walks requested
system.cpu.itb.write_accesses                       0                       # DTB write accesses
system.cpu.itb.write_hits                           0                       # DTB write hits
system.cpu.itb.write_misses                         0                       # DTB write misses
system.cpu.numCycles                        110208438                       # number of cpu cycles simulated
system.cpu.numFetchSuspends                         0                       # Number of times Execute suspended instruction fetching
system.cpu.numWorkItemsCompleted                    0                       # number of work items this cpu completed
system.cpu.numWorkItemsStarted                      0                       # number of work items this cpu started
system.cpu.op_class_0::No_OpClass                   0      0.00%      0.00% # Class of committed instruction
system.cpu.op_class_0::IntAlu                72223172     66.18%     66.18% # Class of committed instruction
system.cpu.op_class_0::IntMult                 547032      0.50%     66.68% # Class of committed instruction
system.cpu.op_class_0::IntDiv                       0      0.00%     66.68% # Class of committed instruction
system.cpu.op_class_0::FloatAdd                     0      0.00%     66.68% # Class of committed instruction
system.cpu.op_class_0::FloatCmp                     0      0.00%     66.68% # Class of committed instruction
system.cpu.op_class_0::FloatCvt                     0      0.00%     66.68% # Class of committed instruction
system.cpu.op_class_0::FloatMult                    0      0.00%     66.68% # Class of committed instruction
system.cpu.op_class_0::FloatMultAcc                 0      0.00%     66.68% # Class of committed instruction
system.cpu.op_class_0::FloatDiv                     0      0.00%     66.68% # Class of committed instruction
system.cpu.op_class_0::FloatMisc                    0      0.00%     66.68% # Class of committed instruction
system.cpu.op_class_0::FloatSqrt                    0      0.00%     66.68% # Class of committed instruction
system.cpu.op_class_0::SimdAdd                 231656      0.21%     66.89% # Class of committed instruction
system.cpu.op_class_0::SimdAddAcc                   0      0.00%     66.89% # Class of committed instruction
system.cpu.op_class_0::SimdAlu                 148482      0.14%     67.02% # Class of committed instruction
system.cpu.op_class_0::SimdCmp                 115828      0.11%     67.13% # Class of committed instruction
system.cpu.op_class_0::SimdCvt                      0      0.00%     67.13% # Class of committed instruction
system.cpu.op_class_0::SimdMisc                 42808      0.04%     67.17% # Class of committed instruction
system.cpu.op_class_0::SimdMult                     0      0.00%     67.17% # Class of committed instruction
system.cpu.op_class_0::SimdMultAcc                  0      0.00%     67.17% # Class of committed instruction
system.cpu.op_class_0::SimdShift                    0      0.00%     67.17% # Class of committed instruction
system.cpu.op_class_0::SimdShiftAcc                 0      0.00%     67.17% # Class of committed instruction
system.cpu.op_class_0::SimdDiv                      0      0.00%     67.17% # Class of committed instruction
system.cpu.op_class_0::SimdSqrt                     0      0.00%     67.17% # Class of committed instruction
system.cpu.op_class_0::SimdFloatAdd                 0      0.00%     67.17% # Class of committed instruction
system.cpu.op_class_0::SimdFloatAlu                 0      0.00%     67.17% # Class of committed instruction
system.cpu.op_class_0::SimdFloatCmp                 0      0.00%     67.17% # Class of committed instruction
system.cpu.op_class_0::SimdFloatCvt                 0      0.00%     67.17% # Class of committed instruction
system.cpu.op_class_0::SimdFloatDiv                 0      0.00%     67.17% # Class of committed instruction
system.cpu.op_class_0::SimdFloatMisc           159857      0.15%     67.32% # Class of committed instruction
system.cpu.op_class_0::SimdFloatMult                0      0.00%     67.32% # Class of committed instruction
system.cpu.op_class_0::SimdFloatMultAcc             0      0.00%     67.32% # Class of committed instruction
system.cpu.op_class_0::SimdFloatSqrt                0      0.00%     67.32% # Class of committed instruction
system.cpu.op_class_0::SimdReduceAdd                0      0.00%     67.32% # Class of committed instruction
system.cpu.op_class_0::SimdReduceAlu                0      0.00%     67.32% # Class of committed instruction
system.cpu.op_class_0::SimdReduceCmp                0      0.00%     67.32% # Class of committed instruction
system.cpu.op_class_0::SimdFloatReduceAdd            0      0.00%     67.32% # Class of committed instruction
system.cpu.op_class_0::SimdFloatReduceCmp            0      0.00%     67.32% # Class of committed instruction
system.cpu.op_class_0::SimdAes                      0      0.00%     67.32% # Class of committed instruction
system.cpu.op_class_0::SimdAesMix                   0      0.00%     67.32% # Class of committed instruction
system.cpu.op_class_0::SimdSha1Hash                 0      0.00%     67.32% # Class of committed instruction
system.cpu.op_class_0::SimdSha1Hash2                0      0.00%     67.32% # Class of committed instruction
system.cpu.op_class_0::SimdSha256Hash               0      0.00%     67.32% # Class of committed instruction
system.cpu.op_class_0::SimdSha256Hash2              0      0.00%     67.32% # Class of committed instruction
system.cpu.op_class_0::SimdShaSigma2                0      0.00%     67.32% # Class of committed instruction
system.cpu.op_class_0::SimdShaSigma3                0      0.00%     67.32% # Class of committed instruction
system.cpu.op_class_0::SimdPredAlu                  0      0.00%     67.32% # Class of committed instruction
system.cpu.op_class_0::MemRead               20932798     19.18%     86.50% # Class of committed instruction
system.cpu.op_class_0::MemWrite              14737791     13.50%    100.00% # Class of committed instruction
system.cpu.op_class_0::FloatMemRead                 0      0.00%    100.00% # Class of committed instruction
system.cpu.op_class_0::FloatMemWrite                0      0.00%    100.00% # Class of committed instruction
system.cpu.op_class_0::IprAccess                    0      0.00%    100.00% # Class of committed instruction
system.cpu.op_class_0::InstPrefetch                 0      0.00%    100.00% # Class of committed instruction
system.cpu.op_class_0::total                109139424                       # Class of committed instruction
system.cpu.tickCycles                       106554610                       # Number of cycles that the object actually ticked
system.cpu.workload.numSyscalls                    85                       # Number of system calls
system.membus.snoop_filter.hit_multi_requests            0                       # Number of requests hitting in the snoop filter with multiple (>1) holders of the requested data.
system.membus.snoop_filter.hit_multi_snoops            0                       # Number of snoops hitting in the snoop filter with multiple (>1) holders of the requested data.
system.membus.snoop_filter.hit_single_requests        36202                       # Number of requests hitting in the snoop filter with a single holder of the requested data.
system.membus.snoop_filter.hit_single_snoops            0                       # Number of snoops hitting in the snoop filter with a single holder of the requested data.
system.membus.snoop_filter.tot_requests         81033                       # Total number of requests made to the snoop filter.
system.membus.snoop_filter.tot_snoops               0                       # Total number of snoops made to the snoop filter.
system.tol2bus.snoop_filter.hit_multi_requests         1079                       # Number of requests hitting in the snoop filter with multiple (>1) holders of the requested data.
system.tol2bus.snoop_filter.hit_multi_snoops            0                       # Number of snoops hitting in the snoop filter with multiple (>1) holders of the requested data.
system.tol2bus.snoop_filter.hit_single_requests        82830                       # Number of requests hitting in the snoop filter with a single holder of the requested data.
system.tol2bus.snoop_filter.hit_single_snoops          441                       # Number of snoops hitting in the snoop filter with a single holder of the requested data.
system.tol2bus.snoop_filter.tot_requests       166610                       # Total number of requests made to the snoop filter.
system.tol2bus.snoop_filter.tot_snoops            441                       # Total number of snoops made to the snoop filter.
system.membus.pwrStateResidencyTicks::UNDEFINED 110208438000                       # Cumulative time (in ticks) in various power states
system.membus.trans_dist::ReadResp               6890                       # Transaction distribution
system.membus.trans_dist::WritebackDirty        36080                       # Transaction distribution
system.membus.trans_dist::CleanEvict              122                       # Transaction distribution
system.membus.trans_dist::ReadExReq             37941                       # Transaction distribution
system.membus.trans_dist::ReadExResp            37941                       # Transaction distribution
system.membus.trans_dist::ReadSharedReq          6890                       # Transaction distribution
system.membus.pkt_count_system.l2.mem_side::system.mem_ctrls.port       125864                       # Packet count per connected master and slave (bytes)
system.membus.pkt_count::total                 125864                       # Packet count per connected master and slave (bytes)
system.membus.pkt_size_system.l2.mem_side::system.mem_ctrls.port      5178304                       # Cumulative packet size per connected master and slave (bytes)
system.membus.pkt_size::total                 5178304                       # Cumulative packet size per connected master and slave (bytes)
system.membus.snoops                                0                       # Total snoops (count)
system.membus.snoopTraffic                          0                       # Total snoop traffic (bytes)
system.membus.snoop_fanout::samples             44831                       # Request fanout histogram
system.membus.snoop_fanout::mean                    0                       # Request fanout histogram
system.membus.snoop_fanout::stdev                   0                       # Request fanout histogram
system.membus.snoop_fanout::underflows              0      0.00%      0.00% # Request fanout histogram
system.membus.snoop_fanout::0                   44831    100.00%    100.00% # Request fanout histogram
system.membus.snoop_fanout::1                       0      0.00%    100.00% # Request fanout histogram
system.membus.snoop_fanout::overflows               0      0.00%    100.00% # Request fanout histogram
system.membus.snoop_fanout::min_value               0                       # Request fanout histogram
system.membus.snoop_fanout::max_value               0                       # Request fanout histogram
system.membus.snoop_fanout::total               44831                       # Request fanout histogram
system.membus.respLayer1.occupancy          242087250                       # Layer occupancy (ticks)
system.membus.respLayer1.utilization              0.2                       # Layer utilization (%)
system.membus.reqLayer0.occupancy           225353000                       # Layer occupancy (ticks)
system.membus.reqLayer0.utilization               0.2                       # Layer utilization (%)
system.tol2bus.pwrStateResidencyTicks::UNDEFINED 110208438000                       # Cumulative time (in ticks) in various power states
system.tol2bus.trans_dist::ReadResp             38023                       # Transaction distribution
system.tol2bus.trans_dist::WritebackDirty       105959                       # Transaction distribution
system.tol2bus.trans_dist::WritebackClean          484                       # Transaction distribution
system.tol2bus.trans_dist::CleanEvict           13028                       # Transaction distribution
system.tol2bus.trans_dist::ReadExReq            45759                       # Transaction distribution
system.tol2bus.trans_dist::ReadExResp           45759                       # Transaction distribution
system.tol2bus.trans_dist::ReadCleanReq           926                       # Transaction distribution
system.tol2bus.trans_dist::ReadSharedReq        37097                       # Transaction distribution
system.tol2bus.pkt_count_system.cpu.icache.mem_side::system.l2.cpu_side         2336                       # Packet count per connected master and slave (bytes)
system.tol2bus.pkt_count_system.cpu.dcache.mem_side::system.l2.cpu_side       248056                       # Packet count per connected master and slave (bytes)
system.tol2bus.pkt_count::total                250392                       # Packet count per connected master and slave (bytes)
system.tol2bus.pkt_size_system.cpu.icache.mem_side::system.l2.cpu_side        90240                       # Cumulative packet size per connected master and slave (bytes)
system.tol2bus.pkt_size_system.cpu.dcache.mem_side::system.l2.cpu_side      9775040                       # Cumulative packet size per connected master and slave (bytes)
system.tol2bus.pkt_size::total                9865280                       # Cumulative packet size per connected master and slave (bytes)
system.tol2bus.snoops                           36643                       # Total snoops (count)
system.tol2bus.snoopTraffic                   2309120                       # Total snoop traffic (bytes)
system.tol2bus.snoop_fanout::samples           120425                       # Request fanout histogram
system.tol2bus.snoop_fanout::mean            0.012639                       # Request fanout histogram
system.tol2bus.snoop_fanout::stdev           0.111709                       # Request fanout histogram
system.tol2bus.snoop_fanout::underflows             0      0.00%      0.00% # Request fanout histogram
system.tol2bus.snoop_fanout::0                 118903     98.74%     98.74% # Request fanout histogram
system.tol2bus.snoop_fanout::1                   1522      1.26%    100.00% # Request fanout histogram
system.tol2bus.snoop_fanout::2                      0      0.00%    100.00% # Request fanout histogram
system.tol2bus.snoop_fanout::overflows              0      0.00%    100.00% # Request fanout histogram
system.tol2bus.snoop_fanout::min_value              0                       # Request fanout histogram
system.tol2bus.snoop_fanout::max_value              1                       # Request fanout histogram
system.tol2bus.snoop_fanout::total             120425                       # Request fanout histogram
system.tol2bus.reqLayer0.occupancy          307336000                       # Layer occupancy (ticks)
system.tol2bus.reqLayer0.utilization              0.3                       # Layer utilization (%)
system.tol2bus.respLayer1.occupancy         248568999                       # Layer occupancy (ticks)
system.tol2bus.respLayer1.utilization             0.2                       # Layer utilization (%)
system.tol2bus.respLayer0.occupancy           2778999                       # Layer occupancy (ticks)
system.tol2bus.respLayer0.utilization             0.0                       # Layer utilization (%)
system.voltage_domain.voltage                       1                       # Voltage in Volts
system.clk_domain.clock                          1000                       # Clock period in ticks
system.l2.pwrStateResidencyTicks::UNDEFINED 110208438000                       # Cumulative time (in ticks) in various power states
system.l2.demand_hits::.cpu.inst                  419                       # number of demand (read+write) hits
system.l2.demand_hits::.cpu.data                38530                       # number of demand (read+write) hits
system.l2.demand_hits::total                    38949                       # number of demand (read+write) hits
system.l2.overall_hits::.cpu.inst                 419                       # number of overall hits
system.l2.overall_hits::.cpu.data               38530                       # number of overall hits
system.l2.overall_hits::total                   38949                       # number of overall hits
system.l2.demand_misses::.cpu.inst                507                       # number of demand (read+write) misses
system.l2.demand_misses::.cpu.data              44326                       # number of demand (read+write) misses
system.l2.demand_misses::total                  44833                       # number of demand (read+write) misses
system.l2.overall_misses::.cpu.inst               507                       # number of overall misses
system.l2.overall_misses::.cpu.data             44326                       # number of overall misses
system.l2.overall_misses::total                 44833                       # number of overall misses
system.l2.demand_miss_latency::.cpu.inst     49100000                       # number of demand (read+write) miss cycles
system.l2.demand_miss_latency::.cpu.data   4765842000                       # number of demand (read+write) miss cycles
system.l2.demand_miss_latency::total       4814942000                       # number of demand (read+write) miss cycles
system.l2.overall_miss_latency::.cpu.inst     49100000                       # number of overall miss cycles
system.l2.overall_miss_latency::.cpu.data   4765842000                       # number of overall miss cycles
system.l2.overall_miss_latency::total      4814942000                       # number of overall miss cycles
system.l2.demand_accesses::.cpu.inst              926                       # number of demand (read+write) accesses
system.l2.demand_accesses::.cpu.data            82856                       # number of demand (read+write) accesses
system.l2.demand_accesses::total                83782                       # number of demand (read+write) accesses
system.l2.overall_accesses::.cpu.inst             926                       # number of overall (read+write) accesses
system.l2.overall_accesses::.cpu.data           82856                       # number of overall (read+write) accesses
system.l2.overall_accesses::total               83782                       # number of overall (read+write) accesses
system.l2.demand_miss_rate::.cpu.inst        0.547516                       # miss rate for demand accesses
system.l2.demand_miss_rate::.cpu.data        0.534976                       # miss rate for demand accesses
system.l2.demand_miss_rate::total            0.535115                       # miss rate for demand accesses
system.l2.overall_miss_rate::.cpu.inst       0.547516                       # miss rate for overall accesses
system.l2.overall_miss_rate::.cpu.data       0.534976                       # miss rate for overall accesses
system.l2.overall_miss_rate::total           0.535115                       # miss rate for overall accesses
system.l2.demand_avg_miss_latency::.cpu.inst 96844.181460                       # average overall miss latency
system.l2.demand_avg_miss_latency::.cpu.data 107517.980418                       # average overall miss latency
system.l2.demand_avg_miss_latency::total 107397.274329                       # average overall miss latency
system.l2.overall_avg_miss_latency::.cpu.inst 96844.181460                       # average overall miss latency
system.l2.overall_avg_miss_latency::.cpu.data 107517.980418                       # average overall miss latency
system.l2.overall_avg_miss_latency::total 107397.274329                       # average overall miss latency
system.l2.blocked_cycles::no_mshrs                  0                       # number of cycles access was blocked
system.l2.blocked_cycles::no_targets                0                       # number of cycles access was blocked
system.l2.blocked::no_mshrs                         0                       # number of cycles access was blocked
system.l2.blocked::no_targets                       0                       # number of cycles access was blocked
system.l2.avg_blocked_cycles::no_mshrs            nan                       # average number of cycles each access was blocked
system.l2.avg_blocked_cycles::no_targets          nan                       # average number of cycles each access was blocked
system.l2.writebacks::.writebacks               36080                       # number of writebacks
system.l2.writebacks::total                     36080                       # number of writebacks
system.l2.demand_mshr_hits::.cpu.inst               1                       # number of demand (read+write) MSHR hits
system.l2.demand_mshr_hits::.cpu.data               1                       # number of demand (read+write) MSHR hits
system.l2.demand_mshr_hits::total                   2                       # number of demand (read+write) MSHR hits
system.l2.overall_mshr_hits::.cpu.inst              1                       # number of overall MSHR hits
system.l2.overall_mshr_hits::.cpu.data              1                       # number of overall MSHR hits
system.l2.overall_mshr_hits::total                  2                       # number of overall MSHR hits
system.l2.demand_mshr_misses::.cpu.inst           506                       # number of demand (read+write) MSHR misses
system.l2.demand_mshr_misses::.cpu.data         44325                       # number of demand (read+write) MSHR misses
system.l2.demand_mshr_misses::total             44831                       # number of demand (read+write) MSHR misses
system.l2.overall_mshr_misses::.cpu.inst          506                       # number of overall MSHR misses
system.l2.overall_mshr_misses::.cpu.data        44325                       # number of overall MSHR misses
system.l2.overall_mshr_misses::total            44831                       # number of overall MSHR misses
system.l2.demand_mshr_miss_latency::.cpu.inst     38906000                       # number of demand (read+write) MSHR miss cycles
system.l2.demand_mshr_miss_latency::.cpu.data   3879255000                       # number of demand (read+write) MSHR miss cycles
system.l2.demand_mshr_miss_latency::total   3918161000                       # number of demand (read+write) MSHR miss cycles
system.l2.overall_mshr_miss_latency::.cpu.inst     38906000                       # number of overall MSHR miss cycles
system.l2.overall_mshr_miss_latency::.cpu.data   3879255000                       # number of overall MSHR miss cycles
system.l2.overall_mshr_miss_latency::total   3918161000                       # number of overall MSHR miss cycles
system.l2.demand_mshr_miss_rate::.cpu.inst     0.546436                       # mshr miss rate for demand accesses
system.l2.demand_mshr_miss_rate::.cpu.data     0.534964                       # mshr miss rate for demand accesses
system.l2.demand_mshr_miss_rate::total       0.535091                       # mshr miss rate for demand accesses
system.l2.overall_mshr_miss_rate::.cpu.inst     0.546436                       # mshr miss rate for overall accesses
system.l2.overall_mshr_miss_rate::.cpu.data     0.534964                       # mshr miss rate for overall accesses
system.l2.overall_mshr_miss_rate::total      0.535091                       # mshr miss rate for overall accesses
system.l2.demand_avg_mshr_miss_latency::.cpu.inst 76889.328063                       # average overall mshr miss latency
system.l2.demand_avg_mshr_miss_latency::.cpu.data 87518.443316                       # average overall mshr miss latency
system.l2.demand_avg_mshr_miss_latency::total 87398.474270                       # average overall mshr miss latency
system.l2.overall_avg_mshr_miss_latency::.cpu.inst 76889.328063                       # average overall mshr miss latency
system.l2.overall_avg_mshr_miss_latency::.cpu.data 87518.443316                       # average overall mshr miss latency
system.l2.overall_avg_mshr_miss_latency::total 87398.474270                       # average overall mshr miss latency
system.l2.replacements                          36643                       # number of replacements
system.l2.WritebackDirty_hits::.writebacks        69879                       # number of WritebackDirty hits
system.l2.WritebackDirty_hits::total            69879                       # number of WritebackDirty hits
system.l2.WritebackDirty_accesses::.writebacks        69879                       # number of WritebackDirty accesses(hits+misses)
system.l2.WritebackDirty_accesses::total        69879                       # number of WritebackDirty accesses(hits+misses)
system.l2.WritebackClean_hits::.writebacks          483                       # number of WritebackClean hits
system.l2.WritebackClean_hits::total              483                       # number of WritebackClean hits
system.l2.WritebackClean_accesses::.writebacks          483                       # number of WritebackClean accesses(hits+misses)
system.l2.WritebackClean_accesses::total          483                       # number of WritebackClean accesses(hits+misses)
system.l2.ReadExReq_hits::.cpu.data              7818                       # number of ReadExReq hits
system.l2.ReadExReq_hits::total                  7818                       # number of ReadExReq hits
system.l2.ReadExReq_misses::.cpu.data           37941                       # number of ReadExReq misses
system.l2.ReadExReq_misses::total               37941                       # number of ReadExReq misses
system.l2.ReadExReq_miss_latency::.cpu.data   4059000000                       # number of ReadExReq miss cycles
system.l2.ReadExReq_miss_latency::total    4059000000                       # number of ReadExReq miss cycles
system.l2.ReadExReq_accesses::.cpu.data         45759                       # number of ReadExReq accesses(hits+misses)
system.l2.ReadExReq_accesses::total             45759                       # number of ReadExReq accesses(hits+misses)
system.l2.ReadExReq_miss_rate::.cpu.data     0.829148                       # miss rate for ReadExReq accesses
system.l2.ReadExReq_miss_rate::total         0.829148                       # miss rate for ReadExReq accesses
system.l2.ReadExReq_avg_miss_latency::.cpu.data 106981.892939                       # average ReadExReq miss latency
system.l2.ReadExReq_avg_miss_latency::total 106981.892939                       # average ReadExReq miss latency
system.l2.ReadExReq_mshr_misses::.cpu.data        37941                       # number of ReadExReq MSHR misses
system.l2.ReadExReq_mshr_misses::total          37941                       # number of ReadExReq MSHR misses
system.l2.ReadExReq_mshr_miss_latency::.cpu.data   3300180000                       # number of ReadExReq MSHR miss cycles
system.l2.ReadExReq_mshr_miss_latency::total   3300180000                       # number of ReadExReq MSHR miss cycles
system.l2.ReadExReq_mshr_miss_rate::.cpu.data     0.829148                       # mshr miss rate for ReadExReq accesses
system.l2.ReadExReq_mshr_miss_rate::total     0.829148                       # mshr miss rate for ReadExReq accesses
system.l2.ReadExReq_avg_mshr_miss_latency::.cpu.data 86981.892939                       # average ReadExReq mshr miss latency
system.l2.ReadExReq_avg_mshr_miss_latency::total 86981.892939                       # average ReadExReq mshr miss latency
system.l2.ReadCleanReq_hits::.cpu.inst            419                       # number of ReadCleanReq hits
system.l2.ReadCleanReq_hits::total                419                       # number of ReadCleanReq hits
system.l2.ReadCleanReq_misses::.cpu.inst          507                       # number of ReadCleanReq misses
system.l2.ReadCleanReq_misses::total              507                       # number of ReadCleanReq misses
system.l2.ReadCleanReq_miss_latency::.cpu.inst     49100000                       # number of ReadCleanReq miss cycles
system.l2.ReadCleanReq_miss_latency::total     49100000                       # number of ReadCleanReq miss cycles
system.l2.ReadCleanReq_accesses::.cpu.inst          926                       # number of ReadCleanReq accesses(hits+misses)
system.l2.ReadCleanReq_accesses::total            926                       # number of ReadCleanReq accesses(hits+misses)
system.l2.ReadCleanReq_miss_rate::.cpu.inst     0.547516                       # miss rate for ReadCleanReq accesses
system.l2.ReadCleanReq_miss_rate::total      0.547516                       # miss rate for ReadCleanReq accesses
system.l2.ReadCleanReq_avg_miss_latency::.cpu.inst 96844.181460                       # average ReadCleanReq miss latency
system.l2.ReadCleanReq_avg_miss_latency::total 96844.181460                       # average ReadCleanReq miss latency
system.l2.ReadCleanReq_mshr_hits::.cpu.inst            1                       # number of ReadCleanReq MSHR hits
system.l2.ReadCleanReq_mshr_hits::total             1                       # number of ReadCleanReq MSHR hits
system.l2.ReadCleanReq_mshr_misses::.cpu.inst          506                       # number of ReadCleanReq MSHR misses
system.l2.ReadCleanReq_mshr_misses::total          506                       # number of ReadCleanReq MSHR misses
system.l2.ReadCleanReq_mshr_miss_latency::.cpu.inst     38906000                       # number of ReadCleanReq MSHR miss cycles
system.l2.ReadCleanReq_mshr_miss_latency::total     38906000                       # number of ReadCleanReq MSHR miss cycles
system.l2.ReadCleanReq_mshr_miss_rate::.cpu.inst     0.546436                       # mshr miss rate for ReadCleanReq accesses
system.l2.ReadCleanReq_mshr_miss_rate::total     0.546436                       # mshr miss rate for ReadCleanReq accesses
system.l2.ReadCleanReq_avg_mshr_miss_latency::.cpu.inst 76889.328063                       # average ReadCleanReq mshr miss latency
system.l2.ReadCleanReq_avg_mshr_miss_latency::total 76889.328063                       # average ReadCleanReq mshr miss latency
system.l2.ReadSharedReq_hits::.cpu.data         30712                       # number of ReadSharedReq hits
system.l2.ReadSharedReq_hits::total             30712                       # number of ReadSharedReq hits
system.l2.ReadSharedReq_misses::.cpu.data         6385                       # number of ReadSharedReq misses
system.l2.ReadSharedReq_misses::total            6385                       # number of ReadSharedReq misses
system.l2.ReadSharedReq_miss_latency::.cpu.data    706842000                       # number of ReadSharedReq miss cycles
system.l2.ReadSharedReq_miss_latency::total    706842000                       # number of ReadSharedReq miss cycles
system.l2.ReadSharedReq_accesses::.cpu.data        37097                       # number of ReadSharedReq accesses(hits+misses)
system.l2.ReadSharedReq_accesses::total         37097                       # number of ReadSharedReq accesses(hits+misses)
system.l2.ReadSharedReq_miss_rate::.cpu.data     0.172116                       # miss rate for ReadSharedReq accesses
system.l2.ReadSharedReq_miss_rate::total     0.172116                       # miss rate for ReadSharedReq accesses
system.l2.ReadSharedReq_avg_miss_latency::.cpu.data 110703.523884                       # average ReadSharedReq miss latency
system.l2.ReadSharedReq_avg_miss_latency::total 110703.523884                       # average ReadSharedReq miss latency
system.l2.ReadSharedReq_mshr_hits::.cpu.data            1                       # number of ReadSharedReq MSHR hits
system.l2.ReadSharedReq_mshr_hits::total            1                       # number of ReadSharedReq MSHR hits
system.l2.ReadSharedReq_mshr_misses::.cpu.data         6384                       # number of ReadSharedReq MSHR misses
system.l2.ReadSharedReq_mshr_misses::total         6384                       # number of ReadSharedReq MSHR misses
system.l2.ReadSharedReq_mshr_miss_latency::.cpu.data    579075000                       # number of ReadSharedReq MSHR miss cycles
system.l2.ReadSharedReq_mshr_miss_latency::total    579075000                       # number of ReadSharedReq MSHR miss cycles
system.l2.ReadSharedReq_mshr_miss_rate::.cpu.data     0.172089                       # mshr miss rate for ReadSharedReq accesses
system.l2.ReadSharedReq_mshr_miss_rate::total     0.172089                       # mshr miss rate for ReadSharedReq accesses
system.l2.ReadSharedReq_avg_mshr_miss_latency::.cpu.data 90707.236842                       # average ReadSharedReq mshr miss latency
system.l2.ReadSharedReq_avg_mshr_miss_latency::total 90707.236842                       # average ReadSharedReq mshr miss latency
system.l2.tags.pwrStateResidencyTicks::UNDEFINED 110208438000                       # Cumulative time (in ticks) in various power states
system.l2.tags.tagsinuse                  7996.625319                       # Cycle average of tags in use
system.l2.tags.total_refs                      165529                       # Total number of references to valid blocks.
system.l2.tags.sampled_refs                     44835                       # Sample count of references to valid blocks.
system.l2.tags.avg_refs                      3.691959                       # Average number of references to valid blocks.
system.l2.tags.warmup_cycle                     87000                       # Cycle when the warmup percentage was hit.
system.l2.tags.occ_blocks::.writebacks       0.929164                       # Average occupied blocks per requestor
system.l2.tags.occ_blocks::.cpu.inst        28.886376                       # Average occupied blocks per requestor
system.l2.tags.occ_blocks::.cpu.data      7966.809779                       # Average occupied blocks per requestor
system.l2.tags.occ_percent::.writebacks      0.000113                       # Average percentage of cache occupancy
system.l2.tags.occ_percent::.cpu.inst        0.003526                       # Average percentage of cache occupancy
system.l2.tags.occ_percent::.cpu.data        0.972511                       # Average percentage of cache occupancy
system.l2.tags.occ_percent::total            0.976151                       # Average percentage of cache occupancy
system.l2.tags.occ_task_id_blocks::1024          8192                       # Occupied blocks per task id
system.l2.tags.age_task_id_blocks_1024::0            3                       # Occupied blocks per task id
system.l2.tags.age_task_id_blocks_1024::1           20                       # Occupied blocks per task id
system.l2.tags.age_task_id_blocks_1024::2          218                       # Occupied blocks per task id
system.l2.tags.age_task_id_blocks_1024::3         2510                       # Occupied blocks per task id
system.l2.tags.age_task_id_blocks_1024::4         5441                       # Occupied blocks per task id
system.l2.tags.occ_task_id_percent::1024            1                       # Percentage of cache occupancy per task id
system.l2.tags.tag_accesses                    706959                       # Number of tag accesses
system.l2.tags.data_accesses                   706959                       # Number of data accesses
system.cpu_voltage_domain.voltage                   1                       # Voltage in Volts
system.mem_ctrls.pwrStateResidencyTicks::UNDEFINED 110208438000                       # Cumulative time (in ticks) in various power states
system.mem_ctrls.bytes_read::.cpu.inst          32384                       # Number of bytes read from this memory
system.mem_ctrls.bytes_read::.cpu.data        2836800                       # Number of bytes read from this memory
system.mem_ctrls.bytes_read::total            2869184                       # Number of bytes read from this memory
system.mem_ctrls.bytes_inst_read::.cpu.inst        32384                       # Number of instructions bytes read from this memory
system.mem_ctrls.bytes_inst_read::total         32384                       # Number of instructions bytes read from this memory
system.mem_ctrls.bytes_written::.writebacks      2309120                       # Number of bytes written to this memory
system.mem_ctrls.bytes_written::total         2309120                       # Number of bytes written to this memory
system.mem_ctrls.num_reads::.cpu.inst             506                       # Number of read requests responded to by this memory
system.mem_ctrls.num_reads::.cpu.data           44325                       # Number of read requests responded to by this memory
system.mem_ctrls.num_reads::total               44831                       # Number of read requests responded to by this memory
system.mem_ctrls.num_writes::.writebacks        36080                       # Number of write requests responded to by this memory
system.mem_ctrls.num_writes::total              36080                       # Number of write requests responded to by this memory
system.mem_ctrls.bw_read::.cpu.inst            293843                       # Total read bandwidth from this memory (bytes/s)
system.mem_ctrls.bw_read::.cpu.data          25740316                       # Total read bandwidth from this memory (bytes/s)
system.mem_ctrls.bw_read::total              26034159                       # Total read bandwidth from this memory (bytes/s)
system.mem_ctrls.bw_inst_read::.cpu.inst       293843                       # Instruction read bandwidth from this memory (bytes/s)
system.mem_ctrls.bw_inst_read::total           293843                       # Instruction read bandwidth from this memory (bytes/s)
system.mem_ctrls.bw_write::.writebacks       20952298                       # Write bandwidth from this memory (bytes/s)
system.mem_ctrls.bw_write::total             20952298                       # Write bandwidth from this memory (bytes/s)
system.mem_ctrls.bw_total::.writebacks       20952298                       # Total bandwidth to/from this memory (bytes/s)
system.mem_ctrls.bw_total::.cpu.inst           293843                       # Total bandwidth to/from this memory (bytes/s)
system.mem_ctrls.bw_total::.cpu.data         25740316                       # Total bandwidth to/from this memory (bytes/s)
system.mem_ctrls.bw_total::total             46986457                       # Total bandwidth to/from this memory (bytes/s)
system.mem_ctrls.avgPriority_.writebacks::samples     36080.00                       # Average QoS priority value for accepted requests
system.mem_ctrls.avgPriority_.cpu.inst::samples       506.00                       # Average QoS priority value for accepted requests
system.mem_ctrls.avgPriority_.cpu.data::samples     44306.00                       # Average QoS priority value for accepted requests
system.mem_ctrls.priorityMinLatency      0.000000018750                       # per QoS priority minimum request to response latency (s)
system.mem_ctrls.priorityMaxLatency      0.004098484500                       # per QoS priority maximum request to response latency (s)
system.mem_ctrls.numReadWriteTurnArounds         2020                       # Number of turnarounds from READ to WRITE
system.mem_ctrls.numWriteReadTurnArounds         2020                       # Number of turnarounds from WRITE to READ
system.mem_ctrls.numStayReadState              153451                       # Number of times bus staying in READ state
system.mem_ctrls.numStayWriteState              34084                       # Number of times bus staying in WRITE state
system.mem_ctrls.readReqs                       44831                       # Number of read requests accepted
system.mem_ctrls.writeReqs                      36080                       # Number of write requests accepted
system.mem_ctrls.readBursts                     44831                       # Number of DRAM read bursts, including those serviced by the write queue
system.mem_ctrls.writeBursts                    36080                       # Number of DRAM write bursts, including those merged in the write queue
system.mem_ctrls.servicedByWrQ                     19                       # Number of DRAM read bursts serviced by the write queue
system.mem_ctrls.mergedWrBursts                     0                       # Number of DRAM write bursts merged with an existing one
system.mem_ctrls.neitherReadNorWriteReqs            0                       # Number of requests that are neither read nor write
system.mem_ctrls.perBankRdBursts::0              2724                       # Per bank write bursts
system.mem_ctrls.perBankRdBursts::1              2721                       # Per bank write bursts
system.mem_ctrls.perBankRdBursts::2              2900                       # Per bank write bursts
system.mem_ctrls.perBankRdBursts::3              3132                       # Per bank write bursts
system.mem_ctrls.perBankRdBursts::4              2900                       # Per bank write bursts
system.mem_ctrls.perBankRdBursts::5              2887                       # Per bank write bursts
system.mem_ctrls.perBankRdBursts::6              2838                       # Per bank write bursts
system.mem_ctrls.perBankRdBursts::7              2890                       # Per bank write bursts
system.mem_ctrls.perBankRdBursts::8              2844                       # Per bank write bursts
system.mem_ctrls.perBankRdBursts::9              2698                       # Per bank write bursts
system.mem_ctrls.perBankRdBursts::10             2777                       # Per bank write bursts
system.mem_ctrls.perBankRdBursts::11             2712                       # Per bank write bursts
system.mem_ctrls.perBankRdBursts::12             2675                       # Per bank write bursts
system.mem_ctrls.perBankRdBursts::13             2715                       # Per bank write bursts
system.mem_ctrls.perBankRdBursts::14             2687                       # Per bank write bursts
system.mem_ctrls.perBankRdBursts::15             2712                       # Per bank write bursts
system.mem_ctrls.perBankWrBursts::0              2167                       # Per bank write bursts
system.mem_ctrls.perBankWrBursts::1              2178                       # Per bank write bursts
system.mem_ctrls.perBankWrBursts::2              2377                       # Per bank write bursts
system.mem_ctrls.perBankWrBursts::3              2580                       # Per bank write bursts
system.mem_ctrls.perBankWrBursts::4              2315                       # Per bank write bursts
system.mem_ctrls.perBankWrBursts::5              2321                       # Per bank write bursts
system.mem_ctrls.perBankWrBursts::6              2296                       # Per bank write bursts
system.mem_ctrls.perBankWrBursts::7              2309                       # Per bank write bursts
system.mem_ctrls.perBankWrBursts::8              2267                       # Per bank write bursts
system.mem_ctrls.perBankWrBursts::9              2166                       # Per bank write bursts
system.mem_ctrls.perBankWrBursts::10             2198                       # Per bank write bursts
system.mem_ctrls.perBankWrBursts::11             2184                       # Per bank write bursts
system.mem_ctrls.perBankWrBursts::12             2164                       # Per bank write bursts
system.mem_ctrls.perBankWrBursts::13             2188                       # Per bank write bursts
system.mem_ctrls.perBankWrBursts::14             2167                       # Per bank write bursts
system.mem_ctrls.perBankWrBursts::15             2184                       # Per bank write bursts
system.mem_ctrls.avgRdQLen                       1.05                       # Average read queue length when enqueuing
system.mem_ctrls.avgWrQLen                      23.85                       # Average write queue length when enqueuing
system.mem_ctrls.totQLat                    773788500                       # Total ticks spent queuing
system.mem_ctrls.totBusLat                  224060000                       # Total ticks spent in databus transfers
system.mem_ctrls.totMemAccLat              1614013500                       # Total ticks spent from burst creation until serviced by the DRAM
system.mem_ctrls.avgQLat                     17267.44                       # Average queueing delay per DRAM burst
system.mem_ctrls.avgBusLat                    5000.00                       # Average bus latency per DRAM burst
system.mem_ctrls.avgMemAccLat                36017.44                       # Average memory access latency per DRAM burst
system.mem_ctrls.numRdRetry                         0                       # Number of times read queue was full causing retry
system.mem_ctrls.numWrRetry                         0                       # Number of times write queue was full causing retry
system.mem_ctrls.readRowHits                    18653                       # Number of row buffer hits during reads
system.mem_ctrls.writeRowHits                   25766                       # Number of row buffer hits during writes
system.mem_ctrls.readRowHitRate                 41.63                       # Row buffer hit rate for reads
system.mem_ctrls.writeRowHitRate                71.41                       # Row buffer hit rate for writes
system.mem_ctrls.readPktSize::0                     0                       # Read request sizes (log2)
system.mem_ctrls.readPktSize::1                     0                       # Read request sizes (log2)
system.mem_ctrls.readPktSize::2                     0                       # Read request sizes (log2)
system.mem_ctrls.readPktSize::3                     0                       # Read request sizes (log2)
system.mem_ctrls.readPktSize::4                     0                       # Read request sizes (log2)
system.mem_ctrls.readPktSize::5                     0                       # Read request sizes (log2)
system.mem_ctrls.readPktSize::6                 44831                       # Read request sizes (log2)
system.mem_ctrls.writePktSize::0                    0                       # Write request sizes (log2)
system.mem_ctrls.writePktSize::1                    0                       # Write request sizes (log2)
system.mem_ctrls.writePktSize::2                    0                       # Write request sizes (log2)
system.mem_ctrls.writePktSize::3                    0                       # Write request sizes (log2)
system.mem_ctrls.writePktSize::4                    0                       # Write request sizes (log2)
system.mem_ctrls.writePktSize::5                    0                       # Write request sizes (log2)
system.mem_ctrls.writePktSize::6                36080                       # Write request sizes (log2)
system.mem_ctrls.rdQLenPdf::0                   43117                       # What read queue length does an incoming req see
system.mem_ctrls.rdQLenPdf::1                    1687                       # What read queue length does an incoming req see
system.mem_ctrls.rdQLenPdf::2                       8                       # What read queue length does an incoming req see
system.mem_ctrls.rdQLenPdf::3                       0                       # What read queue length does an incoming req see
system.mem_ctrls.rdQLenPdf::4                       0                       # What read queue length does an incoming req see
system.mem_ctrls.rdQLenPdf::5                       0                       # What read queue length does an incoming req see
system.mem_ctrls.rdQLenPdf::6                       0                       # What read queue length does an incoming req see
system.mem_ctrls.rdQLenPdf::7                       0                       # What read queue length does an incoming req see
system.mem_ctrls.rdQLenPdf::8                       0                       # What read queue length does an incoming req see
system.mem_ctrls.rdQLenPdf::9                       0                       # What read queue length does an incoming req see
system.mem_ctrls.rdQLenPdf::10                      0                       # What read queue length does an incoming req see
system.mem_ctrls.rdQLenPdf::11                      0                       # What read queue length does an incoming req see
system.mem_ctrls.rdQLenPdf::12                      0                       # What read queue length does an incoming req see
system.mem_ctrls.rdQLenPdf::13                      0                       # What read queue length does an incoming req see
system.mem_ctrls.rdQLenPdf::14                      0                       # What read queue length does an incoming req see
system.mem_ctrls.rdQLenPdf::15                      0                       # What read queue length does an incoming req see
system.mem_ctrls.rdQLenPdf::16                      0                       # What read queue length does an incoming req see
system.mem_ctrls.rdQLenPdf::17                      0                       # What read queue length does an incoming req see
system.mem_ctrls.rdQLenPdf::18                      0                       # What read queue length does an incoming req see
system.mem_ctrls.rdQLenPdf::19                      0                       # What read queue length does an incoming req see
system.mem_ctrls.rdQLenPdf::20                      0                       # What read queue length does an incoming req see
system.mem_ctrls.rdQLenPdf::21                      0                       # What read queue length does an incoming req see
system.mem_ctrls.rdQLenPdf::22                      0                       # What read queue length does an incoming req see
system.mem_ctrls.rdQLenPdf::23                      0                       # What read queue length does an incoming req see
system.mem_ctrls.rdQLenPdf::24                      0                       # What read queue length does an incoming req see
system.mem_ctrls.rdQLenPdf::25                      0                       # What read queue length does an incoming req see
system.mem_ctrls.rdQLenPdf::26                      0                       # What read queue length does an incoming req see
system.mem_ctrls.rdQLenPdf::27                      0                       # What read queue length does an incoming req see
system.mem_ctrls.rdQLenPdf::28                      0                       # What read queue length does an incoming req see
system.mem_ctrls.rdQLenPdf::29                      0                       # What read queue length does an incoming req see
system.mem_ctrls.rdQLenPdf::30                      0                       # What read queue length does an incoming req see
system.mem_ctrls.rdQLenPdf::31                      0                       # What read queue length does an incoming req see
system.mem_ctrls.wrQLenPdf::0                       1                       # What write queue length does an incoming req see
system.mem_ctrls.wrQLenPdf::1                       1                       # What write queue length does an incoming req see
system.mem_ctrls.wrQLenPdf::2                       1                       # What write queue length does an incoming req see
system.mem_ctrls.wrQLenPdf::3                       1                       # What write queue length does an incoming req see
system.mem_ctrls.wrQLenPdf::4                       1                       # What write queue length does an incoming req see
system.mem_ctrls.wrQLenPdf::5                       1                       # What write queue length does an incoming req see
system.mem_ctrls.wrQLenPdf::6                       1                       # What write queue length does an incoming req see
system.mem_ctrls.wrQLenPdf::7                       1                       # What write queue length does an incoming req see
system.mem_ctrls.wrQLenPdf::8                       1                       # What write queue length does an incoming req see
system.mem_ctrls.wrQLenPdf::9                       1                       # What write queue length does an incoming req see
system.mem_ctrls.wrQLenPdf::10                      1                       # What write queue length does an incoming req see
system.mem_ctrls.wrQLenPdf::11                      1                       # What write queue length does an incoming req see
system.mem_ctrls.wrQLenPdf::12                      1                       # What write queue length does an incoming req see
system.mem_ctrls.wrQLenPdf::13                      1                       # What write queue length does an incoming req see
system.mem_ctrls.wrQLenPdf::14                      1                       # What write queue length does an incoming req see
system.mem_ctrls.wrQLenPdf::15                   1785                       # What write queue length does an incoming req see
system.mem_ctrls.wrQLenPdf::16                   1792                       # What write queue length does an incoming req see
system.mem_ctrls.wrQLenPdf::17                   2018                       # What write queue length does an incoming req see
system.mem_ctrls.wrQLenPdf::18                   2027                       # What write queue length does an incoming req see
system.mem_ctrls.wrQLenPdf::19                   2021                       # What write queue length does an incoming req see
system.mem_ctrls.wrQLenPdf::20                   2027                       # What write queue length does an incoming req see
system.mem_ctrls.wrQLenPdf::21                   2023                       # What write queue length does an incoming req see
system.mem_ctrls.wrQLenPdf::22                   2037                       # What write queue length does an incoming req see
system.mem_ctrls.wrQLenPdf::23                   2041                       # What write queue length does an incoming req see
system.mem_ctrls.wrQLenPdf::24                   2034                       # What write queue length does an incoming req see
system.mem_ctrls.wrQLenPdf::25                   2040                       # What write queue length does an incoming req see
system.mem_ctrls.wrQLenPdf::26                   2035                       # What write queue length does an incoming req see
system.mem_ctrls.wrQLenPdf::27                   2037                       # What write queue length does an incoming req see
system.mem_ctrls.wrQLenPdf::28                   2055                       # What write queue length does an incoming req see
system.mem_ctrls.wrQLenPdf::29                   2029                       # What write queue length does an incoming req see
system.mem_ctrls.wrQLenPdf::30                   2023                       # What write queue length does an incoming req see
system.mem_ctrls.wrQLenPdf::31                   2020                       # What write queue length does an incoming req see
system.mem_ctrls.wrQLenPdf::32                   2020                       # What write queue length does an incoming req see
system.mem_ctrls.wrQLenPdf::33                      1                       # What write queue length does an incoming req see
system.mem_ctrls.wrQLenPdf::34                      0                       # What write queue length does an incoming req see
system.mem_ctrls.wrQLenPdf::35                      0                       # What write queue length does an incoming req see
system.mem_ctrls.wrQLenPdf::36                      0                       # What write queue length does an incoming req see
system.mem_ctrls.wrQLenPdf::37                      0                       # What write queue length does an incoming req see
system.mem_ctrls.wrQLenPdf::38                      0                       # What write queue length does an incoming req see
system.mem_ctrls.wrQLenPdf::39                      0                       # What write queue length does an incoming req see
system.mem_ctrls.wrQLenPdf::40                      0                       # What write queue length does an incoming req see
system.mem_ctrls.wrQLenPdf::41                      0                       # What write queue length does an incoming req see
system.mem_ctrls.wrQLenPdf::42                      0                       # What write queue length does an incoming req see
system.mem_ctrls.wrQLenPdf::43                      0                       # What write queue length does an incoming req see
system.mem_ctrls.wrQLenPdf::44                      0                       # What write queue length does an incoming req see
system.mem_ctrls.wrQLenPdf::45                      0                       # What write queue length does an incoming req see
system.mem_ctrls.wrQLenPdf::46                      0                       # What write queue length does an incoming req see
system.mem_ctrls.wrQLenPdf::47                      0                       # What write queue length does an incoming req see
system.mem_ctrls.wrQLenPdf::48                      0                       # What write queue length does an incoming req see
system.mem_ctrls.wrQLenPdf::49                      0                       # What write queue length does an incoming req see
system.mem_ctrls.wrQLenPdf::50                      0                       # What write queue length does an incoming req see
system.mem_ctrls.wrQLenPdf::51                      0                       # What write queue length does an incoming req see
system.mem_ctrls.wrQLenPdf::52                      0                       # What write queue length does an incoming req see
system.mem_ctrls.wrQLenPdf::53                      0                       # What write queue length does an incoming req see
system.mem_ctrls.wrQLenPdf::54                      0                       # What write queue length does an incoming req see
system.mem_ctrls.wrQLenPdf::55                      0                       # What write queue length does an incoming req see
system.mem_ctrls.wrQLenPdf::56                      0                       # What write queue length does an incoming req see
system.mem_ctrls.wrQLenPdf::57                      0                       # What write queue length does an incoming req see
system.mem_ctrls.wrQLenPdf::58                      0                       # What write queue length does an incoming req see
system.mem_ctrls.wrQLenPdf::59                      0                       # What write queue length does an incoming req see
system.mem_ctrls.wrQLenPdf::60                      0                       # What write queue length does an incoming req see
system.mem_ctrls.wrQLenPdf::61                      0                       # What write queue length does an incoming req see
system.mem_ctrls.wrQLenPdf::62                      0                       # What write queue length does an incoming req see
system.mem_ctrls.wrQLenPdf::63                      0                       # What write queue length does an incoming req see
system.mem_ctrls.bytesPerActivate::samples        36454                       # Bytes accessed per row activation
system.mem_ctrls.bytesPerActivate::mean    141.983651                       # Bytes accessed per row activation
system.mem_ctrls.bytesPerActivate::gmean   105.277386                       # Bytes accessed per row activation
system.mem_ctrls.bytesPerActivate::stdev   159.900050                       # Bytes accessed per row activation
system.mem_ctrls.bytesPerActivate::0-127        19900     54.59%     54.59% # Bytes accessed per row activation
system.mem_ctrls.bytesPerActivate::128-255        11962     32.81%     87.40% # Bytes accessed per row activation
system.mem_ctrls.bytesPerActivate::256-383         2301      6.31%     93.72% # Bytes accessed per row activation
system.mem_ctrls.bytesPerActivate::384-511          719      1.97%     95.69% # Bytes accessed per row activation
system.mem_ctrls.bytesPerActivate::512-639          352      0.97%     96.65% # Bytes accessed per row activation
system.mem_ctrls.bytesPerActivate::640-767          319      0.88%     97.53% # Bytes accessed per row activation
system.mem_ctrls.bytesPerActivate::768-895          282      0.77%     98.30% # Bytes accessed per row activation
system.mem_ctrls.bytesPerActivate::896-1023          277      0.76%     99.06% # Bytes accessed per row activation
system.mem_ctrls.bytesPerActivate::1024-1151          342      0.94%    100.00% # Bytes accessed per row activation
system.mem_ctrls.bytesPerActivate::total        36454                       # Bytes accessed per row activation
system.mem_ctrls.rdPerTurnAround::samples         2020                       # Reads before turning the bus around for writes
system.mem_ctrls.rdPerTurnAround::mean      22.182178                       # Reads before turning the bus around for writes
system.mem_ctrls.rdPerTurnAround::gmean     18.147837                       # Reads before turning the bus around for writes
system.mem_ctrls.rdPerTurnAround::stdev    129.541610                       # Reads before turning the bus around for writes
system.mem_ctrls.rdPerTurnAround::0-255          2017     99.85%     99.85% # Reads before turning the bus around for writes
system.mem_ctrls.rdPerTurnAround::256-511            1      0.05%     99.90% # Reads before turning the bus around for writes
system.mem_ctrls.rdPerTurnAround::2304-2559            1      0.05%     99.95% # Reads before turning the bus around for writes
system.mem_ctrls.rdPerTurnAround::5120-5375            1      0.05%    100.00% # Reads before turning the bus around for writes
system.mem_ctrls.rdPerTurnAround::total          2020                       # Reads before turning the bus around for writes
[...]
system.cpu.icache.tags.occ_percent::total     0.431108                       # Average percentage of cache occupancy
system.cpu.icache.tags.occ_task_id_blocks::1024          442                       # Occupied blocks per task id
system.cpu.icache.tags.age_task_id_blocks_1024::1            3                       # Occupied blocks per task id
system.cpu.icache.tags.age_task_id_blocks_1024::4          439                       # Occupied blocks per task id
system.cpu.icache.tags.occ_task_id_percent::1024     0.431641                       # Percentage of cache occupancy per task id
system.cpu.icache.tags.tag_accesses          27001063                       # Number of tag accesses
system.cpu.icache.tags.data_accesses         27001063                       # Number of data accesses
system.cpu.dtb.walker.pwrStateResidencyTicks::UNDEFINED 110208438000                       # Cumulative time (in ticks) in various power states
system.cpu.dtb.stage2_mmu.stage2_tlb.walker.pwrStateResidencyTicks::UNDEFINED 110208438000                       # Cumulative time (in ticks) in various power states
system.cpu.dcache.pwrStateResidencyTicks::UNDEFINED 110208438000                       # Cumulative time (in ticks) in various power states
system.cpu.dcache.demand_hits::.cpu.data     35057125                       # number of demand (read+write) hits
system.cpu.dcache.demand_hits::total         35057125                       # number of demand (read+write) hits
system.cpu.dcache.overall_hits::.cpu.data     35060166                       # number of overall hits
system.cpu.dcache.overall_hits::total        35060166                       # number of overall hits
system.cpu.dcache.demand_misses::.cpu.data       113579                       # number of demand (read+write) misses
system.cpu.dcache.demand_misses::total         113579                       # number of demand (read+write) misses
system.cpu.dcache.overall_misses::.cpu.data       113667                       # number of overall misses
system.cpu.dcache.overall_misses::total        113667                       # number of overall misses
system.cpu.dcache.demand_miss_latency::.cpu.data   7661004000                       # number of demand (read+write) miss cycles
system.cpu.dcache.demand_miss_latency::total   7661004000                       # number of demand (read+write) miss cycles
system.cpu.dcache.overall_miss_latency::.cpu.data   7661004000                       # number of overall miss cycles
system.cpu.dcache.overall_miss_latency::total   7661004000                       # number of overall miss cycles
system.cpu.dcache.demand_accesses::.cpu.data     35170704                       # number of demand (read+write) accesses
system.cpu.dcache.demand_accesses::total     35170704                       # number of demand (read+write) accesses
system.cpu.dcache.overall_accesses::.cpu.data     35173833                       # number of overall (read+write) accesses
system.cpu.dcache.overall_accesses::total     35173833                       # number of overall (read+write) accesses
system.cpu.dcache.demand_miss_rate::.cpu.data     0.003229                       # miss rate for demand accesses
system.cpu.dcache.demand_miss_rate::total     0.003229                       # miss rate for demand accesses
system.cpu.dcache.overall_miss_rate::.cpu.data     0.003232                       # miss rate for overall accesses
system.cpu.dcache.overall_miss_rate::total     0.003232                       # miss rate for overall accesses
system.cpu.dcache.demand_avg_miss_latency::.cpu.data 67450.884406                       # average overall miss latency
system.cpu.dcache.demand_avg_miss_latency::total 67450.884406                       # average overall miss latency
system.cpu.dcache.overall_avg_miss_latency::.cpu.data 67398.664520                       # average overall miss latency
system.cpu.dcache.overall_avg_miss_latency::total 67398.664520                       # average overall miss latency
system.cpu.dcache.blocked_cycles::no_mshrs            0                       # number of cycles access was blocked
system.cpu.dcache.blocked_cycles::no_targets            0                       # number of cycles access was blocked
system.cpu.dcache.blocked::no_mshrs                 0                       # number of cycles access was blocked
system.cpu.dcache.blocked::no_targets               0                       # number of cycles access was blocked
system.cpu.dcache.avg_blocked_cycles::no_mshrs          nan                       # average number of cycles each access was blocked
system.cpu.dcache.avg_blocked_cycles::no_targets          nan                       # average number of cycles each access was blocked
system.cpu.dcache.writebacks::.writebacks        69879                       # number of writebacks
system.cpu.dcache.writebacks::total             69879                       # number of writebacks
system.cpu.dcache.demand_mshr_hits::.cpu.data        30808                       # number of demand (read+write) MSHR hits
system.cpu.dcache.demand_mshr_hits::total        30808                       # number of demand (read+write) MSHR hits
system.cpu.dcache.overall_mshr_hits::.cpu.data        30808                       # number of overall MSHR hits
system.cpu.dcache.overall_mshr_hits::total        30808                       # number of overall MSHR hits
system.cpu.dcache.demand_mshr_misses::.cpu.data        82771                       # number of demand (read+write) MSHR misses
system.cpu.dcache.demand_mshr_misses::total        82771                       # number of demand (read+write) MSHR misses
system.cpu.dcache.overall_mshr_misses::.cpu.data        82855                       # number of overall MSHR misses
system.cpu.dcache.overall_mshr_misses::total        82855                       # number of overall MSHR misses
system.cpu.dcache.demand_mshr_miss_latency::.cpu.data   5891568000                       # number of demand (read+write) MSHR miss cycles
system.cpu.dcache.demand_mshr_miss_latency::total   5891568000                       # number of demand (read+write) MSHR miss cycles
system.cpu.dcache.overall_mshr_miss_latency::.cpu.data   5895137000                       # number of overall MSHR miss cycles
system.cpu.dcache.overall_mshr_miss_latency::total   5895137000                       # number of overall MSHR miss cycles
system.cpu.dcache.demand_mshr_miss_rate::.cpu.data     0.002353                       # mshr miss rate for demand accesses
system.cpu.dcache.demand_mshr_miss_rate::total     0.002353                       # mshr miss rate for demand accesses
system.cpu.dcache.overall_mshr_miss_rate::.cpu.data     0.002356                       # mshr miss rate for overall accesses
system.cpu.dcache.overall_mshr_miss_rate::total     0.002356                       # mshr miss rate for overall accesses
system.cpu.dcache.demand_avg_mshr_miss_latency::.cpu.data 71179.132788                       # average overall mshr miss latency
system.cpu.dcache.demand_avg_mshr_miss_latency::total 71179.132788                       # average overall mshr miss latency
system.cpu.dcache.overall_avg_mshr_miss_latency::.cpu.data 71150.045260                       # average overall mshr miss latency
system.cpu.dcache.overall_avg_mshr_miss_latency::total 71150.045260                       # average overall mshr miss latency
system.cpu.dcache.replacements                  82344                       # number of replacements
system.cpu.dcache.ReadReq_hits::.cpu.data     20858431                       # number of ReadReq hits
system.cpu.dcache.ReadReq_hits::total        20858431                       # number of ReadReq hits
system.cpu.dcache.ReadReq_misses::.cpu.data        45287                       # number of ReadReq misses
system.cpu.dcache.ReadReq_misses::total         45287                       # number of ReadReq misses
system.cpu.dcache.ReadReq_miss_latency::.cpu.data   1820833000                       # number of ReadReq miss cycles
system.cpu.dcache.ReadReq_miss_latency::total   1820833000                       # number of ReadReq miss cycles
system.cpu.dcache.ReadReq_accesses::.cpu.data     20903718                       # number of ReadReq accesses(hits+misses)
system.cpu.dcache.ReadReq_accesses::total     20903718                       # number of ReadReq accesses(hits+misses)
system.cpu.dcache.ReadReq_miss_rate::.cpu.data     0.002166                       # miss rate for ReadReq accesses
system.cpu.dcache.ReadReq_miss_rate::total     0.002166                       # miss rate for ReadReq accesses
system.cpu.dcache.ReadReq_avg_miss_latency::.cpu.data 40206.527259                       # average ReadReq miss latency
system.cpu.dcache.ReadReq_avg_miss_latency::total 40206.527259                       # average ReadReq miss latency
system.cpu.dcache.ReadReq_mshr_hits::.cpu.data         8273                       # number of ReadReq MSHR hits
system.cpu.dcache.ReadReq_mshr_hits::total         8273                       # number of ReadReq MSHR hits
system.cpu.dcache.ReadReq_mshr_misses::.cpu.data        37014                       # number of ReadReq MSHR misses
system.cpu.dcache.ReadReq_mshr_misses::total        37014                       # number of ReadReq MSHR misses
system.cpu.dcache.ReadReq_mshr_miss_latency::.cpu.data   1498788000                       # number of ReadReq MSHR miss cycles
system.cpu.dcache.ReadReq_mshr_miss_latency::total   1498788000                       # number of ReadReq MSHR miss cycles
system.cpu.dcache.ReadReq_mshr_miss_rate::.cpu.data     0.001771                       # mshr miss rate for ReadReq accesses
system.cpu.dcache.ReadReq_mshr_miss_rate::total     0.001771                       # mshr miss rate for ReadReq accesses
system.cpu.dcache.ReadReq_avg_mshr_miss_latency::.cpu.data 40492.462312                       # average ReadReq mshr miss latency
system.cpu.dcache.ReadReq_avg_mshr_miss_latency::total 40492.462312                       # average ReadReq mshr miss latency
system.cpu.dcache.WriteReq_hits::.cpu.data     14198694                       # number of WriteReq hits
system.cpu.dcache.WriteReq_hits::total       14198694                       # number of WriteReq hits
system.cpu.dcache.WriteReq_misses::.cpu.data        68292                       # number of WriteReq misses
system.cpu.dcache.WriteReq_misses::total        68292                       # number of WriteReq misses
system.cpu.dcache.WriteReq_miss_latency::.cpu.data   5840171000                       # number of WriteReq miss cycles
system.cpu.dcache.WriteReq_miss_latency::total   5840171000                       # number of WriteReq miss cycles
system.cpu.dcache.WriteReq_accesses::.cpu.data     14266986                       # number of WriteReq accesses(hits+misses)
system.cpu.dcache.WriteReq_accesses::total     14266986                       # number of WriteReq accesses(hits+misses)
system.cpu.dcache.WriteReq_miss_rate::.cpu.data     0.004787                       # miss rate for WriteReq accesses
system.cpu.dcache.WriteReq_miss_rate::total     0.004787                       # miss rate for WriteReq accesses
system.cpu.dcache.WriteReq_avg_miss_latency::.cpu.data 85517.644819                       # average WriteReq miss latency
system.cpu.dcache.WriteReq_avg_miss_latency::total 85517.644819                       # average WriteReq miss latency
system.cpu.dcache.WriteReq_mshr_hits::.cpu.data        22535                       # number of WriteReq MSHR hits
system.cpu.dcache.WriteReq_mshr_hits::total        22535                       # number of WriteReq MSHR hits
system.cpu.dcache.WriteReq_mshr_misses::.cpu.data        45757                       # number of WriteReq MSHR misses
system.cpu.dcache.WriteReq_mshr_misses::total        45757                       # number of WriteReq MSHR misses
system.cpu.dcache.WriteReq_mshr_miss_latency::.cpu.data   4392780000                       # number of WriteReq MSHR miss cycles
system.cpu.dcache.WriteReq_mshr_miss_latency::total   4392780000                       # number of WriteReq MSHR miss cycles
system.cpu.dcache.WriteReq_mshr_miss_rate::.cpu.data     0.003207                       # mshr miss rate for WriteReq accesses
system.cpu.dcache.WriteReq_mshr_miss_rate::total     0.003207                       # mshr miss rate for WriteReq accesses
system.cpu.dcache.WriteReq_avg_mshr_miss_latency::.cpu.data 96002.360295                       # average WriteReq mshr miss latency
system.cpu.dcache.WriteReq_avg_mshr_miss_latency::total 96002.360295                       # average WriteReq mshr miss latency
system.cpu.dcache.SoftPFReq_hits::.cpu.data         3041                       # number of SoftPFReq hits
system.cpu.dcache.SoftPFReq_hits::total          3041                       # number of SoftPFReq hits
system.cpu.dcache.SoftPFReq_misses::.cpu.data           88                       # number of SoftPFReq misses
system.cpu.dcache.SoftPFReq_misses::total           88                       # number of SoftPFReq misses
system.cpu.dcache.SoftPFReq_accesses::.cpu.data         3129                       # number of SoftPFReq accesses(hits+misses)
system.cpu.dcache.SoftPFReq_accesses::total         3129                       # number of SoftPFReq accesses(hits+misses)
system.cpu.dcache.SoftPFReq_miss_rate::.cpu.data     0.028124                       # miss rate for SoftPFReq accesses
system.cpu.dcache.SoftPFReq_miss_rate::total     0.028124                       # miss rate for SoftPFReq accesses
system.cpu.dcache.SoftPFReq_mshr_misses::.cpu.data           84                       # number of SoftPFReq MSHR misses
system.cpu.dcache.SoftPFReq_mshr_misses::total           84                       # number of SoftPFReq MSHR misses
system.cpu.dcache.SoftPFReq_mshr_miss_latency::.cpu.data      3569000                       # number of SoftPFReq MSHR miss cycles
system.cpu.dcache.SoftPFReq_mshr_miss_latency::total      3569000                       # number of SoftPFReq MSHR miss cycles
system.cpu.dcache.SoftPFReq_mshr_miss_rate::.cpu.data     0.026846                       # mshr miss rate for SoftPFReq accesses
system.cpu.dcache.SoftPFReq_mshr_miss_rate::total     0.026846                       # mshr miss rate for SoftPFReq accesses
system.cpu.dcache.SoftPFReq_avg_mshr_miss_latency::.cpu.data 42488.095238                       # average SoftPFReq mshr miss latency
system.cpu.dcache.SoftPFReq_avg_mshr_miss_latency::total 42488.095238                       # average SoftPFReq mshr miss latency
system.cpu.dcache.LoadLockedReq_hits::.cpu.data        85610                       # number of LoadLockedReq hits
system.cpu.dcache.LoadLockedReq_hits::total        85610                       # number of LoadLockedReq hits
system.cpu.dcache.LoadLockedReq_misses::.cpu.data            1                       # number of LoadLockedReq misses
system.cpu.dcache.LoadLockedReq_misses::total            1                       # number of LoadLockedReq misses
system.cpu.dcache.LoadLockedReq_miss_latency::.cpu.data        55000                       # number of LoadLockedReq miss cycles
system.cpu.dcache.LoadLockedReq_miss_latency::total        55000                       # number of LoadLockedReq miss cycles
system.cpu.dcache.LoadLockedReq_accesses::.cpu.data        85611                       # number of LoadLockedReq accesses(hits+misses)
system.cpu.dcache.LoadLockedReq_accesses::total        85611                       # number of LoadLockedReq accesses(hits+misses)
system.cpu.dcache.LoadLockedReq_miss_rate::.cpu.data     0.000012                       # miss rate for LoadLockedReq accesses
system.cpu.dcache.LoadLockedReq_miss_rate::total     0.000012                       # miss rate for LoadLockedReq accesses
system.cpu.dcache.LoadLockedReq_avg_miss_latency::.cpu.data        55000                       # average LoadLockedReq miss latency
system.cpu.dcache.LoadLockedReq_avg_miss_latency::total        55000                       # average LoadLockedReq miss latency
system.cpu.dcache.LoadLockedReq_mshr_misses::.cpu.data            1                       # number of LoadLockedReq MSHR misses
system.cpu.dcache.LoadLockedReq_mshr_misses::total            1                       # number of LoadLockedReq MSHR misses
system.cpu.dcache.LoadLockedReq_mshr_miss_latency::.cpu.data        53000                       # number of LoadLockedReq MSHR miss cycles
system.cpu.dcache.LoadLockedReq_mshr_miss_latency::total        53000                       # number of LoadLockedReq MSHR miss cycles
system.cpu.dcache.LoadLockedReq_mshr_miss_rate::.cpu.data     0.000012                       # mshr miss rate for LoadLockedReq accesses
system.cpu.dcache.LoadLockedReq_mshr_miss_rate::total     0.000012                       # mshr miss rate for LoadLockedReq accesses
system.cpu.dcache.LoadLockedReq_avg_mshr_miss_latency::.cpu.data        53000                       # average LoadLockedReq mshr miss latency
system.cpu.dcache.LoadLockedReq_avg_mshr_miss_latency::total        53000                       # average LoadLockedReq mshr miss latency
system.cpu.dcache.StoreCondReq_hits::.cpu.data        85610                       # number of StoreCondReq hits
system.cpu.dcache.StoreCondReq_hits::total        85610                       # number of StoreCondReq hits
system.cpu.dcache.StoreCondReq_accesses::.cpu.data        85610                       # number of StoreCondReq accesses(hits+misses)
system.cpu.dcache.StoreCondReq_accesses::total        85610                       # number of StoreCondReq accesses(hits+misses)
system.cpu.dcache.tags.pwrStateResidencyTicks::UNDEFINED 110208438000                       # Cumulative time (in ticks) in various power states
system.cpu.dcache.tags.tagsinuse           510.949365                       # Cycle average of tags in use
system.cpu.dcache.tags.total_refs            35314242                       # Total number of references to valid blocks.
system.cpu.dcache.tags.sampled_refs             82856                       # Sample count of references to valid blocks.
system.cpu.dcache.tags.avg_refs            426.212248                       # Average number of references to valid blocks.
system.cpu.dcache.tags.warmup_cycle            223000                       # Cycle when the warmup percentage was hit.
system.cpu.dcache.tags.occ_blocks::.cpu.data   510.949365                       # Average occupied blocks per requestor
system.cpu.dcache.tags.occ_percent::.cpu.data     0.997948                       # Average percentage of cache occupancy
system.cpu.dcache.tags.occ_percent::total     0.997948                       # Average percentage of cache occupancy
system.cpu.dcache.tags.occ_task_id_blocks::1024          512                       # Occupied blocks per task id
system.cpu.dcache.tags.age_task_id_blocks_1024::0            4                       # Occupied blocks per task id
system.cpu.dcache.tags.age_task_id_blocks_1024::1           38                       # Occupied blocks per task id
system.cpu.dcache.tags.age_task_id_blocks_1024::2          247                       # Occupied blocks per task id
system.cpu.dcache.tags.age_task_id_blocks_1024::3          223                       # Occupied blocks per task id
system.cpu.dcache.tags.occ_task_id_percent::1024            1                       # Percentage of cache occupancy per task id
system.cpu.dcache.tags.tag_accesses          35427910                       # Number of tag accesses
system.cpu.dcache.tags.data_accesses         35427910                       # Number of data accesses
system.cpu.itb.walker.pwrStateResidencyTicks::UNDEFINED 110208438000                       # Cumulative time (in ticks) in various power states
system.cpu.itb.stage2_mmu.stage2_tlb.walker.pwrStateResidencyTicks::UNDEFINED 110208438000                       # Cumulative time (in ticks) in various power states

---------- End Simulation Statistics   ----------
