
---------- Begin Simulation Statistics ----------
final_tick                               169368597000                       # Number of ticks from beginning of simulation (restored from checkpoints and never reset)
host_inst_rate                                 351858                       # Simulator instruction rate (inst/s)
host_mem_usage                                 709668                       # Number of bytes of host memory used
host_op_rate                                   352560                       # Simulator op (including micro ops) rate (op/s)
host_seconds                                   284.21                       # Real time elapsed on the host
host_tick_rate                              595936368                       # Simulator tick rate (ticks/s)
sim_freq                                 1000000000000                       # Frequency of simulated ticks
sim_insts                                   100000001                       # Number of instructions simulated
sim_ops                                     100199569                       # Number of ops (including micro ops) simulated
sim_seconds                                  0.169369                       # Number of seconds simulated
sim_ticks                                169368597000                       # Number of ticks simulated
system.cpu.branchPred.BTBCorrect                    0                       # Number of correct BTB predictions (this stat may not work properly.
system.cpu.branchPred.BTBHitPct             99.568435                       # BTB Hit Percentage
system.cpu.branchPred.BTBHits                 2104120                       # Number of BTB hits
system.cpu.branchPred.BTBLookups              2113240                       # Number of BTB lookups
system.cpu.branchPred.RASInCorrect                  6                       # Number of incorrect RAS predictions.
system.cpu.branchPred.condIncorrect             83520                       # Number of conditional branches incorrect
system.cpu.branchPred.condPredicted           3635533                       # Number of conditional branches predicted
system.cpu.branchPred.indirectHits                297                       # Number of indirect target hits.
system.cpu.branchPred.indirectLookups             793                       # Number of indirect predictor lookups.
system.cpu.branchPred.indirectMisses              496                       # Number of indirect misses.
system.cpu.branchPred.lookups                 4389867                       # Number of BP lookups
system.cpu.branchPred.usedRAS                   66037                       # Number of times the RAS was used to get a target.
system.cpu.branchPredindirectMispredicted          168                       # Number of mispredicted indirect branches.
system.cpu.committedInsts                   100000001                       # Number of instructions committed
system.cpu.committedOps                     100199569                       # Number of ops (including micro ops) committed
system.cpu.cpi                               1.693686                       # CPI: cycles per instruction
system.cpu.discardedOps                        196991                       # Number of ops (including micro ops) which were discarded before commit
system.cpu.dtb.accesses                             0                       # DTB accesses
system.cpu.dtb.align_faults                         0                       # Number of TLB faults due to alignment restrictions
system.cpu.dtb.domain_faults                        0                       # Number of TLB faults due to domain restrictions
system.cpu.dtb.flush_entries                        0                       # Number of entries that have been flushed from TLB
system.cpu.dtb.flush_tlb                            0                       # Number of times complete TLB was flushed
system.cpu.dtb.flush_tlb_asid                       0                       # Number of times TLB was flushed by ASID
system.cpu.dtb.flush_tlb_mva                        0                       # Number of times TLB was flushed by MVA
system.cpu.dtb.flush_tlb_mva_asid                   0                       # Number of times TLB was flushed by MVA & ASID
system.cpu.dtb.hits                                 0                       # DTB hits
system.cpu.dtb.inst_accesses                        0                       # ITB inst accesses
system.cpu.dtb.inst_hits                            0                       # ITB inst hits
system.cpu.dtb.inst_misses                          0                       # ITB inst misses
system.cpu.dtb.misses                               0                       # DTB misses
system.cpu.dtb.perms_faults                         0                       # Number of TLB faults due to permissions restrictions
system.cpu.dtb.prefetch_faults                      0                       # Number of TLB faults due to prefetch
system.cpu.dtb.read_accesses                        0                       # DTB read accesses
system.cpu.dtb.read_hits                            0                       # DTB read hits
system.cpu.dtb.read_misses                          0                       # DTB read misses
system.cpu.dtb.stage2_mmu.stage2_tlb.accesses            0                       # DTB accesses
system.cpu.dtb.stage2_mmu.stage2_tlb.align_faults            0                       # Number of TLB faults due to alignment restrictions
system.cpu.dtb.stage2_mmu.stage2_tlb.domain_faults            0                       # Number of TLB faults due to domain restrictions
system.cpu.dtb.stage2_mmu.stage2_tlb.flush_entries            0                       # Number of entries that have been flushed from TLB
system.cpu.dtb.stage2_mmu.stage2_tlb.flush_tlb            0                       # Number of times complete TLB was flushed
system.cpu.dtb.stage2_mmu.stage2_tlb.flush_tlb_asid            0                       # Number of times TLB was flushed by ASID
system.cpu.dtb.stage2_mmu.stage2_tlb.flush_tlb_mva            0                       # Number of times TLB was flushed by MVA
system.cpu.dtb.stage2_mmu.stage2_tlb.flush_tlb_mva_asid            0                       # Number of times TLB was flushed by MVA & ASID
system.cpu.dtb.stage2_mmu.stage2_tlb.hits            0                       # DTB hits
system.cpu.dtb.stage2_mmu.stage2_tlb.inst_accesses            0                       # ITB inst accesses
system.cpu.dtb.stage2_mmu.stage2_tlb.inst_hits            0                       # ITB inst hits
system.cpu.dtb.stage2_mmu.stage2_tlb.inst_misses            0                       # ITB inst misses
system.cpu.dtb.stage2_mmu.stage2_tlb.misses            0                       # DTB misses
system.cpu.dtb.stage2_mmu.stage2_tlb.perms_faults            0                       # Number of TLB faults due to permissions restrictions
system.cpu.dtb.stage2_mmu.stage2_tlb.prefetch_faults            0                       # Number of TLB faults due to prefetch
system.cpu.dtb.stage2_mmu.stage2_tlb.read_accesses            0                       # DTB read accesses
system.cpu.dtb.stage2_mmu.stage2_tlb.read_hits            0                       # DTB read hits
system.cpu.dtb.stage2_mmu.stage2_tlb.read_misses            0                       # DTB read misses
system.cpu.dtb.stage2_mmu.stage2_tlb.walker.walkRequestOrigin_Requested::Data            0                       # Table walker requests started/completed, data/inst
system.cpu.dtb.stage2_mmu.stage2_tlb.walker.walkRequestOrigin_Requested::Inst            0                       # Table walker requests started/completed, data/inst
system.cpu.dtb.stage2_mmu.stage2_tlb.walker.walkRequestOrigin_Requested::total            0                       # Table walker requests started/completed, data/inst
system.cpu.dtb.stage2_mmu.stage2_tlb.walker.walkRequestOrigin_Completed::Data            0                       # Table walker requests started/completed, data/inst
system.cpu.dtb.stage2_mmu.stage2_tlb.walker.walkRequestOrigin_Completed::Inst            0                       # Table walker requests started/completed, data/inst
system.cpu.dtb.stage2_mmu.stage2_tlb.walker.walkRequestOrigin_Completed::total            0                       # Table walker requests started/completed, data/inst
system.cpu.dtb.stage2_mmu.stage2_tlb.walker.walkRequestOrigin::total            0                       # Table walker requests started/completed, data/inst
system.cpu.dtb.stage2_mmu.stage2_tlb.walker.walks            0                       # Table walker walks requested
system.cpu.dtb.stage2_mmu.stage2_tlb.write_accesses            0                       # DTB write accesses
system.cpu.dtb.stage2_mmu.stage2_tlb.write_hits            0                       # DTB write hits
system.cpu.dtb.stage2_mmu.stage2_tlb.write_misses            0                       # DTB write misses
system.cpu.dtb.walker.walkRequestOrigin_Requested::Data            0                       # Table walker requests started/completed, data/inst
system.cpu.dtb.walker.walkRequestOrigin_Requested::Inst            0                       # Table walker requests started/completed, data/inst
system.cpu.dtb.walker.walkRequestOrigin_Requested::total            0                       # Table walker requests started/completed, data/inst
system.cpu.dtb.walker.walkRequestOrigin_Completed::Data            0                       # Table walker requests started/completed, data/inst
system.cpu.dtb.walker.walkRequestOrigin_Completed::Inst            0                       # Table walker requests started/completed, data/inst
system.cpu.dtb.walker.walkRequestOrigin_Completed::total            0                       # Table walker requests started/completed, data/inst
system.cpu.dtb.walker.walkRequestOrigin::total            0                       # Table walker requests started/completed, data/inst
system.cpu.dtb.walker.walks                         0                       # Table walker walks requested
system.cpu.dtb.write_accesses                       0                       # DTB write accesses
system.cpu.dtb.write_hits                           0                       # DTB write hits
system.cpu.dtb.write_misses                         0                       # DTB write misses
system.cpu.fetch2.amo_instructions                  0                       # Number of memory atomic instructions successfully decoded
system.cpu.fetch2.fp_instructions                   0                       # Number of floating point instructions successfully decoded
system.cpu.fetch2.int_instructions           42628367                       # Number of integer instructions successfully decoded
system.cpu.fetch2.load_instructions          43485350                       # Number of memory load instructions successfully decoded
system.cpu.fetch2.store_instructions         11033620                       # Number of memory store instructions successfully decoded
system.cpu.fetch2.vec_instructions                  0                       # Number of SIMD instructions successfully decoded
system.cpu.idleCycles                        36169740                       # Total number of cycles that the object has spent stopped
system.cpu.ipc                               0.590428                       # IPC: instructions per cycle
system.cpu.itb.accesses                             0                       # DTB accesses
system.cpu.itb.align_faults                         0                       # Number of TLB faults due to alignment restrictions
system.cpu.itb.domain_faults                        0                       # Number of TLB faults due to domain restrictions
system.cpu.itb.flush_entries                        0                       # Number of entries that have been flushed from TLB
system.cpu.itb.flush_tlb                            0                       # Number of times complete TLB was flushed
system.cpu.itb.flush_tlb_asid                       0                       # Number of times TLB was flushed by ASID
system.cpu.itb.flush_tlb_mva                        0                       # Number of times TLB was flushed by MVA
system.cpu.itb.flush_tlb_mva_asid                   0                       # Number of times TLB was flushed by MVA & ASID
system.cpu.itb.hits                                 0                       # DTB hits
system.cpu.itb.inst_accesses                        0                       # ITB inst accesses
system.cpu.itb.inst_hits                            0                       # ITB inst hits
system.cpu.itb.inst_misses                          0                       # ITB inst misses
system.cpu.itb.misses                               0                       # DTB misses
system.cpu.itb.perms_faults                         0                       # Number of TLB faults due to permissions restrictions
system.cpu.itb.prefetch_faults                      0                       # Number of TLB faults due to prefetch
system.cpu.itb.read_accesses                        0                       # DTB read accesses
system.cpu.itb.read_hits                            0                       # DTB read hits
system.cpu.itb.read_misses                          0                       # DTB read misses
system.cpu.itb.stage2_mmu.stage2_tlb.accesses            0                       # DTB accesses
system.cpu.itb.stage2_mmu.stage2_tlb.align_faults            0                       # Number of TLB faults due to alignment restrictions
system.cpu.itb.stage2_mmu.stage2_tlb.domain_faults            0                       # Number of TLB faults due to domain restrictions
system.cpu.itb.stage2_mmu.stage2_tlb.flush_entries            0                       # Number of entries that have been flushed from TLB
system.cpu.itb.stage2_mmu.stage2_tlb.flush_tlb            0                       # Number of times complete TLB was flushed
system.cpu.itb.stage2_mmu.stage2_tlb.flush_tlb_asid            0                       # Number of times TLB was flushed by ASID
system.cpu.itb.stage2_mmu.stage2_tlb.flush_tlb_mva            0                       # Number of times TLB was flushed by MVA
system.cpu.itb.stage2_mmu.stage2_tlb.flush_tlb_mva_asid            0                       # Number of times TLB was flushed by MVA & ASID
system.cpu.itb.stage2_mmu.stage2_tlb.hits            0                       # DTB hits
system.cpu.itb.stage2_mmu.stage2_tlb.inst_accesses            0                       # ITB inst accesses
system.cpu.itb.stage2_mmu.stage2_tlb.inst_hits            0                       # ITB inst hits
system.cpu.itb.stage2_mmu.stage2_tlb.inst_misses            0                       # ITB inst misses
system.cpu.itb.stage2_mmu.stage2_tlb.misses            0                       # DTB misses
system.cpu.itb.stage2_mmu.stage2_tlb.perms_faults            0                       # Number of TLB faults due to permissions restrictions
system.cpu.itb.stage2_mmu.stage2_tlb.prefetch_faults            0                       # Number of TLB faults due to prefetch
system.cpu.itb.stage2_mmu.stage2_tlb.read_accesses            0                       # DTB read accesses
system.cpu.itb.stage2_mmu.stage2_tlb.read_hits            0                       # DTB read hits
system.cpu.itb.stage2_mmu.stage2_tlb.read_misses            0                       # DTB read misses
system.cpu.itb.stage2_mmu.stage2_tlb.walker.walkRequestOrigin_Requested::Data            0                       # Table walker requests started/completed, data/inst
system.cpu.itb.stage2_mmu.stage2_tlb.walker.walkRequestOrigin_Requested::Inst            0                       # Table walker requests started/completed, data/inst
system.cpu.itb.stage2_mmu.stage2_tlb.walker.walkRequestOrigin_Requested::total            0                       # Table walker requests started/completed, data/inst
system.cpu.itb.stage2_mmu.stage2_tlb.walker.walkRequestOrigin_Completed::Data            0                       # Table walker requests started/completed, data/inst
system.cpu.itb.stage2_mmu.stage2_tlb.walker.walkRequestOrigin_Completed::Inst            0                       # Table walker requests started/completed, data/inst
system.cpu.itb.stage2_mmu.stage2_tlb.walker.walkRequestOrigin_Completed::total            0                       # Table walker requests started/completed, data/inst
system.cpu.itb.stage2_mmu.stage2_tlb.walker.walkRequestOrigin::total            0                       # Table walker requests started/completed, data/inst
system.cpu.itb.stage2_mmu.stage2_tlb.walker.walks            0                       # Table walker walks requested
system.cpu.itb.stage2_mmu.stage2_tlb.write_accesses            0                       # DTB write accesses
system.cpu.itb.stage2_mmu.stage2_tlb.write_hits            0                       # DTB write hits
system.cpu.itb.stage2_mmu.stage2_tlb.write_misses            0                       # DTB write misses
system.cpu.itb.walker.walkRequestOrigin_Requested::Data            0                       # Table walker requests started/completed, data/inst
system.cpu.itb.walker.walkRequestOrigin_Requested::Inst            0                       # Table walker requests started/completed, data/inst
system.cpu.itb.walker.walkRequestOrigin_Requested::total            0                       # Table walker requests started/completed, data/inst
system.cpu.itb.walker.walkRequestOrigin_Completed::Data            0                       # Table walker requests started/completed, data/inst
system.cpu.itb.walker.walkRequestOrigin_Completed::Inst            0                       # Table walker requests started/completed, data/inst
system.cpu.itb.walker.walkRequestOrigin_Completed::total            0                       # Table walker requests started/completed, data/inst
system.cpu.itb.walker.walkRequestOrigin::total            0                       # Table walker requests started/completed, data/inst
system.cpu.itb.walker.walks                         0                       # Table walker walks requested
system.cpu.itb.write_accesses                       0                       # DTB write accesses
system.cpu.itb.write_hits                           0                       # DTB write hits
system.cpu.itb.write_misses                         0                       # DTB write misses
system.cpu.numCycles                        169368597                       # number of cpu cycles simulated
system.cpu.numFetchSuspends                         0                       # Number of times Execute suspended instruction fetching
system.cpu.numWorkItemsCompleted                    0                       # number of work items this cpu completed
system.cpu.numWorkItemsStarted                      0                       # number of work items this cpu started
system.cpu.op_class_0::No_OpClass                   0      0.00%      0.00% # Class of committed instruction
system.cpu.op_class_0::IntAlu                46443154     46.35%     46.35% # Class of committed instruction
system.cpu.op_class_0::IntMult                  20720      0.02%     46.37% # Class of committed instruction
system.cpu.op_class_0::IntDiv                       0      0.00%     46.37% # Class of committed instruction
system.cpu.op_class_0::FloatAdd                     0      0.00%     46.37% # Class of committed instruction
system.cpu.op_class_0::FloatCmp                     0      0.00%     46.37% # Class of committed instruction
system.cpu.op_class_0::FloatCvt                     0      0.00%     46.37% # Class of committed instruction
system.cpu.op_class_0::FloatMult                    0      0.00%     46.37% # Class of committed instruction
system.cpu.op_class_0::FloatMultAcc                 0      0.00%     46.37% # Class of committed instruction
system.cpu.op_class_0::FloatDiv                     0      0.00%     46.37% # Class of committed instruction
system.cpu.op_class_0::FloatMisc                    0      0.00%     46.37% # Class of committed instruction
system.cpu.op_class_0::FloatSqrt                    0      0.00%     46.37% # Class of committed instruction
system.cpu.op_class_0::SimdAdd                      0      0.00%     46.37% # Class of committed instruction
system.cpu.op_class_0::SimdAddAcc                   0      0.00%     46.37% # Class of committed instruction
system.cpu.op_class_0::SimdAlu                      0      0.00%     46.37% # Class of committed instruction
system.cpu.op_class_0::SimdCmp                      0      0.00%     46.37% # Class of committed instruction
system.cpu.op_class_0::SimdCvt                      0      0.00%     46.37% # Class of committed instruction
system.cpu.op_class_0::SimdMisc                     0      0.00%     46.37% # Class of committed instruction
system.cpu.op_class_0::SimdMult                     0      0.00%     46.37% # Class of committed instruction
system.cpu.op_class_0::SimdMultAcc                  0      0.00%     46.37% # Class of committed instruction
system.cpu.op_class_0::SimdShift                    0      0.00%     46.37% # Class of committed instruction
system.cpu.op_class_0::SimdShiftAcc                 0      0.00%     46.37% # Class of committed instruction
system.cpu.op_class_0::SimdDiv                      0      0.00%     46.37% # Class of committed instruction
system.cpu.op_class_0::SimdSqrt                     0      0.00%     46.37% # Class of committed instruction
system.cpu.op_class_0::SimdFloatAdd                 0      0.00%     46.37% # Class of committed instruction
system.cpu.op_class_0::SimdFloatAlu                 0      0.00%     46.37% # Class of committed instruction
system.cpu.op_class_0::SimdFloatCmp                 0      0.00%     46.37% # Class of committed instruction
system.cpu.op_class_0::SimdFloatCvt                 0      0.00%     46.37% # Class of committed instruction
system.cpu.op_class_0::SimdFloatDiv                 0      0.00%     46.37% # Class of committed instruction
system.cpu.op_class_0::SimdFloatMisc                1      0.00%     46.37% # Class of committed instruction
system.cpu.op_class_0::SimdFloatMult                0      0.00%     46.37% # Class of committed instruction
system.cpu.op_class_0::SimdFloatMultAcc             0      0.00%     46.37% # Class of committed instruction
system.cpu.op_class_0::SimdFloatSqrt                0      0.00%     46.37% # Class of committed instruction
system.cpu.op_class_0::SimdReduceAdd                0      0.00%     46.37% # Class of committed instruction
system.cpu.op_class_0::SimdReduceAlu                0      0.00%     46.37% # Class of committed instruction
system.cpu.op_class_0::SimdReduceCmp                0      0.00%     46.37% # Class of committed instruction
system.cpu.op_class_0::SimdFloatReduceAdd            0      0.00%     46.37% # Class of committed instruction
system.cpu.op_class_0::SimdFloatReduceCmp            0      0.00%     46.37% # Class of committed instruction
system.cpu.op_class_0::SimdAes                      0      0.00%     46.37% # Class of committed instruction
system.cpu.op_class_0::SimdAesMix                   0      0.00%     46.37% # Class of committed instruction
system.cpu.op_class_0::SimdSha1Hash                 0      0.00%     46.37% # Class of committed instruction
system.cpu.op_class_0::SimdSha1Hash2                0      0.00%     46.37% # Class of committed instruction
system.cpu.op_class_0::SimdSha256Hash               0      0.00%     46.37% # Class of committed instruction
system.cpu.op_class_0::SimdSha256Hash2              0      0.00%     46.37% # Class of committed instruction
system.cpu.op_class_0::SimdShaSigma2                0      0.00%     46.37% # Class of committed instruction
system.cpu.op_class_0::SimdShaSigma3                0      0.00%     46.37% # Class of committed instruction
system.cpu.op_class_0::SimdPredAlu                  0      0.00%     46.37% # Class of committed instruction
system.cpu.op_class_0::MemRead               42756988     42.67%     89.04% # Class of committed instruction
system.cpu.op_class_0::MemWrite              10978706     10.96%    100.00% # Class of committed instruction
system.cpu.op_class_0::FloatMemRead                 0      0.00%    100.00% # Class of committed instruction
system.cpu.op_class_0::FloatMemWrite                0      0.00%    100.00% # Class of committed instruction
system.cpu.op_class_0::IprAccess                    0      0.00%    100.00% # Class of committed instruction
system.cpu.op_class_0::InstPrefetch                 0      0.00%    100.00% # Class of committed instruction
system.cpu.op_class_0::total                100199569                       # Class of committed instruction
system.cpu.tickCycles                       133198857                       # Number of cycles that the object actually ticked
system.cpu.workload.numSyscalls                    85                       # Number of system calls
system.membus.snoop_filter.hit_multi_requests            0                       # Number of requests hitting in the snoop filter with multiple (>1) holders of the requested data.
system.membus.snoop_filter.hit_multi_snoops            0                       # Number of snoops hitting in the snoop filter with multiple (>1) holders of the requested data.
system.membus.snoop_filter.hit_single_requests       278528                       # Number of requests hitting in the snoop filter with a single holder of the requested data.
system.membus.snoop_filter.hit_single_snoops            0                       # Number of snoops hitting in the snoop filter with a single holder of the requested data.
system.membus.snoop_filter.tot_requests        565832                       # Total number of requests made to the snoop filter.
system.membus.snoop_filter.tot_snoops               0                       # Total number of snoops made to the snoop filter.
system.tol2bus.snoop_filter.hit_multi_requests          684                       # Number of requests hitting in the snoop filter with multiple (>1) holders of the requested data.
system.tol2bus.snoop_filter.hit_multi_snoops            1                       # Number of snoops hitting in the snoop filter with multiple (>1) holders of the requested data.
system.tol2bus.snoop_filter.hit_single_requests       869833                       # Number of requests hitting in the snoop filter with a single holder of the requested data.
system.tol2bus.snoop_filter.hit_single_snoops        14127                       # Number of snoops hitting in the snoop filter with a single holder of the requested data.
system.tol2bus.snoop_filter.tot_requests      1741284                       # Total number of requests made to the snoop filter.
system.tol2bus.snoop_filter.tot_snoops          14128                       # Total number of snoops made to the snoop filter.
system.membus.pwrStateResidencyTicks::UNDEFINED 169368597000                       # Cumulative time (in ticks) in various power states
system.membus.trans_dist::ReadResp             110073                       # Transaction distribution
system.membus.trans_dist::WritebackDirty       199733                       # Transaction distribution
system.membus.trans_dist::CleanEvict            78783                       # Transaction distribution
system.membus.trans_dist::ReadExReq            177243                       # Transaction distribution
system.membus.trans_dist::ReadExResp           177243                       # Transaction distribution
system.membus.trans_dist::ReadSharedReq        110073                       # Transaction distribution
system.membus.pkt_count_system.l2.mem_side::system.mem_ctrls.port       853148                       # Packet count per connected master and slave (bytes)
system.membus.pkt_count::total                 853148                       # Packet count per connected master and slave (bytes)
system.membus.pkt_size_system.l2.mem_side::system.mem_ctrls.port     31171136                       # Cumulative packet size per connected master and slave (bytes)
system.membus.pkt_size::total                31171136                       # Cumulative packet size per connected master and slave (bytes)
system.membus.snoops                                0                       # Total snoops (count)
system.membus.snoopTraffic                          0                       # Total snoop traffic (bytes)
system.membus.snoop_fanout::samples            287316                       # Request fanout histogram
system.membus.snoop_fanout::mean                    0                       # Request fanout histogram
system.membus.snoop_fanout::stdev                   0                       # Request fanout histogram
system.membus.snoop_fanout::underflows              0      0.00%      0.00% # Request fanout histogram
system.membus.snoop_fanout::0                  287316    100.00%    100.00% # Request fanout histogram
system.membus.snoop_fanout::1                       0      0.00%    100.00% # Request fanout histogram
system.membus.snoop_fanout::overflows               0      0.00%    100.00% # Request fanout histogram
system.membus.snoop_fanout::min_value               0                       # Request fanout histogram
system.membus.snoop_fanout::max_value               0                       # Request fanout histogram
system.membus.snoop_fanout::total              287316                       # Request fanout histogram
system.membus.respLayer1.occupancy         1564141250                       # Layer occupancy (ticks)
system.membus.respLayer1.utilization              0.9                       # Layer utilization (%)
system.membus.reqLayer0.occupancy          1364764000                       # Layer occupancy (ticks)
system.membus.reqLayer0.utilization               0.8                       # Layer utilization (%)
system.tol2bus.pwrStateResidencyTicks::UNDEFINED 169368597000                       # Cumulative time (in ticks) in various power states
system.tol2bus.trans_dist::ReadResp            549346                       # Transaction distribution
system.tol2bus.trans_dist::WritebackDirty       968863                       # Transaction distribution
system.tol2bus.trans_dist::WritebackClean          140                       # Transaction distribution
system.tol2bus.trans_dist::CleanEvict          188760                       # Transaction distribution
system.tol2bus.trans_dist::ReadExReq           322107                       # Transaction distribution
system.tol2bus.trans_dist::ReadExResp          322107                       # Transaction distribution
system.tol2bus.trans_dist::ReadCleanReq           738                       # Transaction distribution
system.tol2bus.trans_dist::ReadSharedReq       548608                       # Transaction distribution
system.tol2bus.pkt_count_system.cpu.icache.mem_side::system.l2.cpu_side         1616                       # Packet count per connected master and slave (bytes)
system.tol2bus.pkt_count_system.cpu.dcache.mem_side::system.l2.cpu_side      2611121                       # Packet count per connected master and slave (bytes)
system.tol2bus.pkt_count::total               2612737                       # Packet count per connected master and slave (bytes)
system.tol2bus.pkt_size_system.cpu.icache.mem_side::system.l2.cpu_side        56192                       # Cumulative packet size per connected master and slave (bytes)
system.tol2bus.pkt_size_system.cpu.dcache.mem_side::system.l2.cpu_side    104950080                       # Cumulative packet size per connected master and slave (bytes)
system.tol2bus.pkt_size::total              105006272                       # Cumulative packet size per connected master and slave (bytes)
system.tol2bus.snoops                          287932                       # Total snoops (count)
system.tol2bus.snoopTraffic                  12782912                       # Total snoop traffic (bytes)
system.tol2bus.snoop_fanout::samples          1159385                       # Request fanout histogram
system.tol2bus.snoop_fanout::mean            0.012778                       # Request fanout histogram
system.tol2bus.snoop_fanout::stdev           0.112324                       # Request fanout histogram
system.tol2bus.snoop_fanout::underflows             0      0.00%      0.00% # Request fanout histogram
system.tol2bus.snoop_fanout::0                1144571     98.72%     98.72% # Request fanout histogram
system.tol2bus.snoop_fanout::1                  14813      1.28%    100.00% # Request fanout histogram
system.tol2bus.snoop_fanout::2                      1      0.00%    100.00% # Request fanout histogram
system.tol2bus.snoop_fanout::overflows              0      0.00%    100.00% # Request fanout histogram
system.tol2bus.snoop_fanout::min_value              0                       # Request fanout histogram
system.tol2bus.snoop_fanout::max_value              2                       # Request fanout histogram
system.tol2bus.snoop_fanout::total            1159385                       # Request fanout histogram
system.tol2bus.reqLayer0.occupancy         3279824000                       # Layer occupancy (ticks)
system.tol2bus.reqLayer0.utilization              1.9                       # Layer utilization (%)
system.tol2bus.respLayer1.occupancy        2612149995                       # Layer occupancy (ticks)
system.tol2bus.respLayer1.utilization             1.5                       # Layer utilization (%)
system.tol2bus.respLayer0.occupancy           2214000                       # Layer occupancy (ticks)
system.tol2bus.respLayer0.utilization             0.0                       # Layer utilization (%)
system.voltage_domain.voltage                       1                       # Voltage in Volts
system.clk_domain.clock                          1000                       # Clock period in ticks
system.l2.pwrStateResidencyTicks::UNDEFINED 169368597000                       # Cumulative time (in ticks) in various power states
system.l2.demand_hits::.cpu.inst                   72                       # number of demand (read+write) hits
system.l2.demand_hits::.cpu.data               584060                       # number of demand (read+write) hits
system.l2.demand_hits::total                   584132                       # number of demand (read+write) hits
system.l2.overall_hits::.cpu.inst                  72                       # number of overall hits
system.l2.overall_hits::.cpu.data              584060                       # number of overall hits
system.l2.overall_hits::total                  584132                       # number of overall hits
system.l2.demand_misses::.cpu.inst                666                       # number of demand (read+write) misses
system.l2.demand_misses::.cpu.data             286655                       # number of demand (read+write) misses
system.l2.demand_misses::total                 287321                       # number of demand (read+write) misses
system.l2.overall_misses::.cpu.inst               666                       # number of overall misses
system.l2.overall_misses::.cpu.data            286655                       # number of overall misses
system.l2.overall_misses::total                287321                       # number of overall misses
system.l2.demand_miss_latency::.cpu.inst     65663000                       # number of demand (read+write) miss cycles
system.l2.demand_miss_latency::.cpu.data  30656304000                       # number of demand (read+write) miss cycles
system.l2.demand_miss_latency::total      30721967000                       # number of demand (read+write) miss cycles
system.l2.overall_miss_latency::.cpu.inst     65663000                       # number of overall miss cycles
system.l2.overall_miss_latency::.cpu.data  30656304000                       # number of overall miss cycles
system.l2.overall_miss_latency::total     30721967000                       # number of overall miss cycles
system.l2.demand_accesses::.cpu.inst              738                       # number of demand (read+write) accesses
system.l2.demand_accesses::.cpu.data           870715                       # number of demand (read+write) accesses
system.l2.demand_accesses::total               871453                       # number of demand (read+write) accesses
system.l2.overall_accesses::.cpu.inst             738                       # number of overall (read+write) accesses
system.l2.overall_accesses::.cpu.data          870715                       # number of overall (read+write) accesses
system.l2.overall_accesses::total              871453                       # number of overall (read+write) accesses
system.l2.demand_miss_rate::.cpu.inst        0.902439                       # miss rate for demand accesses
system.l2.demand_miss_rate::.cpu.data        0.329218                       # miss rate for demand accesses
system.l2.demand_miss_rate::total            0.329703                       # miss rate for demand accesses
system.l2.overall_miss_rate::.cpu.inst       0.902439                       # miss rate for overall accesses
system.l2.overall_miss_rate::.cpu.data       0.329218                       # miss rate for overall accesses
system.l2.overall_miss_rate::total           0.329703                       # miss rate for overall accesses
system.l2.demand_avg_miss_latency::.cpu.inst 98593.093093                       # average overall miss latency
system.l2.demand_avg_miss_latency::.cpu.data 106944.947760                       # average overall miss latency
system.l2.demand_avg_miss_latency::total 106925.588453                       # average overall miss latency
system.l2.overall_avg_miss_latency::.cpu.inst 98593.093093                       # average overall miss latency
system.l2.overall_avg_miss_latency::.cpu.data 106944.947760                       # average overall miss latency
system.l2.overall_avg_miss_latency::total 106925.588453                       # average overall miss latency
system.l2.blocked_cycles::no_mshrs                  0                       # number of cycles access was blocked
system.l2.blocked_cycles::no_targets                0                       # number of cycles access was blocked
system.l2.blocked::no_mshrs                         0                       # number of cycles access was blocked
system.l2.blocked::no_targets                       0                       # number of cycles access was blocked
system.l2.avg_blocked_cycles::no_mshrs            nan                       # average number of cycles each access was blocked
system.l2.avg_blocked_cycles::no_targets          nan                       # average number of cycles each access was blocked
system.l2.writebacks::.writebacks              199733                       # number of writebacks
system.l2.writebacks::total                    199733                       # number of writebacks
system.l2.demand_mshr_hits::.cpu.data               5                       # number of demand (read+write) MSHR hits
system.l2.demand_mshr_hits::total                   5                       # number of demand (read+write) MSHR hits
system.l2.overall_mshr_hits::.cpu.data              5                       # number of overall MSHR hits
system.l2.overall_mshr_hits::total                  5                       # number of overall MSHR hits
system.l2.demand_mshr_misses::.cpu.inst           666                       # number of demand (read+write) MSHR misses
system.l2.demand_mshr_misses::.cpu.data        286650                       # number of demand (read+write) MSHR misses
system.l2.demand_mshr_misses::total            287316                       # number of demand (read+write) MSHR misses
system.l2.overall_mshr_misses::.cpu.inst          666                       # number of overall MSHR misses
system.l2.overall_mshr_misses::.cpu.data       286650                       # number of overall MSHR misses
system.l2.overall_mshr_misses::total           287316                       # number of overall MSHR misses
system.l2.demand_mshr_miss_latency::.cpu.inst     52343000                       # number of demand (read+write) MSHR miss cycles
system.l2.demand_mshr_miss_latency::.cpu.data  24922681000                       # number of demand (read+write) MSHR miss cycles
system.l2.demand_mshr_miss_latency::total  24975024000                       # number of demand (read+write) MSHR miss cycles
system.l2.overall_mshr_miss_latency::.cpu.inst     52343000                       # number of overall MSHR miss cycles
system.l2.overall_mshr_miss_latency::.cpu.data  24922681000                       # number of overall MSHR miss cycles
system.l2.overall_mshr_miss_latency::total  24975024000                       # number of overall MSHR miss cycles
system.l2.demand_mshr_miss_rate::.cpu.inst     0.902439                       # mshr miss rate for demand accesses
system.l2.demand_mshr_miss_rate::.cpu.data     0.329212                       # mshr miss rate for demand accesses
system.l2.demand_mshr_miss_rate::total       0.329698                       # mshr miss rate for demand accesses
system.l2.overall_mshr_miss_rate::.cpu.inst     0.902439                       # mshr miss rate for overall accesses
system.l2.overall_mshr_miss_rate::.cpu.data     0.329212                       # mshr miss rate for overall accesses
system.l2.overall_mshr_miss_rate::total      0.329698                       # mshr miss rate for overall accesses
system.l2.demand_avg_mshr_miss_latency::.cpu.inst 78593.093093                       # average overall mshr miss latency
system.l2.demand_avg_mshr_miss_latency::.cpu.data 86944.639805                       # average overall mshr miss latency
system.l2.demand_avg_mshr_miss_latency::total 86925.280875                       # average overall mshr miss latency
system.l2.overall_avg_mshr_miss_latency::.cpu.inst 78593.093093                       # average overall mshr miss latency
system.l2.overall_avg_mshr_miss_latency::.cpu.data 86944.639805                       # average overall mshr miss latency
system.l2.overall_avg_mshr_miss_latency::total 86925.280875                       # average overall mshr miss latency
system.l2.replacements                         287932                       # number of replacements
system.l2.WritebackDirty_hits::.writebacks       769130                       # number of WritebackDirty hits
system.l2.WritebackDirty_hits::total           769130                       # number of WritebackDirty hits
system.l2.WritebackDirty_accesses::.writebacks       769130                       # number of WritebackDirty accesses(hits+misses)
system.l2.WritebackDirty_accesses::total       769130                       # number of WritebackDirty accesses(hits+misses)
system.l2.WritebackClean_hits::.writebacks          133                       # number of WritebackClean hits
system.l2.WritebackClean_hits::total              133                       # number of WritebackClean hits
system.l2.WritebackClean_accesses::.writebacks          133                       # number of WritebackClean accesses(hits+misses)
system.l2.WritebackClean_accesses::total          133                       # number of WritebackClean accesses(hits+misses)
system.l2.CleanEvict_mshr_misses::.writebacks         4712                       # number of CleanEvict MSHR misses
system.l2.CleanEvict_mshr_misses::total          4712                       # number of CleanEvict MSHR misses
system.l2.CleanEvict_mshr_miss_rate::.writebacks          inf                       # mshr miss rate for CleanEvict accesses
system.l2.CleanEvict_mshr_miss_rate::total          inf                       # mshr miss rate for CleanEvict accesses
system.l2.ReadExReq_hits::.cpu.data            144864                       # number of ReadExReq hits
system.l2.ReadExReq_hits::total                144864                       # number of ReadExReq hits
system.l2.ReadExReq_misses::.cpu.data          177243                       # number of ReadExReq misses
system.l2.ReadExReq_misses::total              177243                       # number of ReadExReq misses
system.l2.ReadExReq_miss_latency::.cpu.data  19353458000                       # number of ReadExReq miss cycles
system.l2.ReadExReq_miss_latency::total   19353458000                       # number of ReadExReq miss cycles
system.l2.ReadExReq_accesses::.cpu.data        322107                       # number of ReadExReq accesses(hits+misses)
system.l2.ReadExReq_accesses::total            322107                       # number of ReadExReq accesses(hits+misses)
system.l2.ReadExReq_miss_rate::.cpu.data     0.550261                       # miss rate for ReadExReq accesses
system.l2.ReadExReq_miss_rate::total         0.550261                       # miss rate for ReadExReq accesses
system.l2.ReadExReq_avg_miss_latency::.cpu.data 109191.663423                       # average ReadExReq miss latency
system.l2.ReadExReq_avg_miss_latency::total 109191.663423                       # average ReadExReq miss latency
system.l2.ReadExReq_mshr_misses::.cpu.data       177243                       # number of ReadExReq MSHR misses
system.l2.ReadExReq_mshr_misses::total         177243                       # number of ReadExReq MSHR misses
system.l2.ReadExReq_mshr_miss_latency::.cpu.data  15808598000                       # number of ReadExReq MSHR miss cycles
system.l2.ReadExReq_mshr_miss_latency::total  15808598000                       # number of ReadExReq MSHR miss cycles
system.l2.ReadExReq_mshr_miss_rate::.cpu.data     0.550261                       # mshr miss rate for ReadExReq accesses
system.l2.ReadExReq_mshr_miss_rate::total     0.550261                       # mshr miss rate for ReadExReq accesses
system.l2.ReadExReq_avg_mshr_miss_latency::.cpu.data 89191.663423                       # average ReadExReq mshr miss latency
system.l2.ReadExReq_avg_mshr_miss_latency::total 89191.663423                       # average ReadExReq mshr miss latency
system.l2.ReadCleanReq_hits::.cpu.inst             72                       # number of ReadCleanReq hits
system.l2.ReadCleanReq_hits::total                 72                       # number of ReadCleanReq hits
system.l2.ReadCleanReq_misses::.cpu.inst          666                       # number of ReadCleanReq misses
system.l2.ReadCleanReq_misses::total              666                       # number of ReadCleanReq misses
system.l2.ReadCleanReq_miss_latency::.cpu.inst     65663000                       # number of ReadCleanReq miss cycles
system.l2.ReadCleanReq_miss_latency::total     65663000                       # number of ReadCleanReq miss cycles
system.l2.ReadCleanReq_accesses::.cpu.inst          738                       # number of ReadCleanReq accesses(hits+misses)
system.l2.ReadCleanReq_accesses::total            738                       # number of ReadCleanReq accesses(hits+misses)
system.l2.ReadCleanReq_miss_rate::.cpu.inst     0.902439                       # miss rate for ReadCleanReq accesses
system.l2.ReadCleanReq_miss_rate::total      0.902439                       # miss rate for ReadCleanReq accesses
system.l2.ReadCleanReq_avg_miss_latency::.cpu.inst 98593.093093                       # average ReadCleanReq miss latency
system.l2.ReadCleanReq_avg_miss_latency::total 98593.093093                       # average ReadCleanReq miss latency
system.l2.ReadCleanReq_mshr_misses::.cpu.inst          666                       # number of ReadCleanReq MSHR misses
system.l2.ReadCleanReq_mshr_misses::total          666                       # number of ReadCleanReq MSHR misses
system.l2.ReadCleanReq_mshr_miss_latency::.cpu.inst     52343000                       # number of ReadCleanReq MSHR miss cycles
system.l2.ReadCleanReq_mshr_miss_latency::total     52343000                       # number of ReadCleanReq MSHR miss cycles
system.l2.ReadCleanReq_mshr_miss_rate::.cpu.inst     0.902439                       # mshr miss rate for ReadCleanReq accesses
system.l2.ReadCleanReq_mshr_miss_rate::total     0.902439                       # mshr miss rate for ReadCleanReq accesses
system.l2.ReadCleanReq_avg_mshr_miss_latency::.cpu.inst 78593.093093                       # average ReadCleanReq mshr miss latency
system.l2.ReadCleanReq_avg_mshr_miss_latency::total 78593.093093                       # average ReadCleanReq mshr miss latency
system.l2.ReadSharedReq_hits::.cpu.data        439196                       # number of ReadSharedReq hits
system.l2.ReadSharedReq_hits::total            439196                       # number of ReadSharedReq hits
system.l2.ReadSharedReq_misses::.cpu.data       109412                       # number of ReadSharedReq misses
system.l2.ReadSharedReq_misses::total          109412                       # number of ReadSharedReq misses
system.l2.ReadSharedReq_miss_latency::.cpu.data  11302846000                       # number of ReadSharedReq miss cycles
system.l2.ReadSharedReq_miss_latency::total  11302846000                       # number of ReadSharedReq miss cycles
system.l2.ReadSharedReq_accesses::.cpu.data       548608                       # number of ReadSharedReq accesses(hits+misses)
system.l2.ReadSharedReq_accesses::total        548608                       # number of ReadSharedReq accesses(hits+misses)
system.l2.ReadSharedReq_miss_rate::.cpu.data     0.199436                       # miss rate for ReadSharedReq accesses
system.l2.ReadSharedReq_miss_rate::total     0.199436                       # miss rate for ReadSharedReq accesses
system.l2.ReadSharedReq_avg_miss_latency::.cpu.data 103305.359558                       # average ReadSharedReq miss latency
system.l2.ReadSharedReq_avg_miss_latency::total 103305.359558                       # average ReadSharedReq miss latency
system.l2.ReadSharedReq_mshr_hits::.cpu.data            5                       # number of ReadSharedReq MSHR hits
system.l2.ReadSharedReq_mshr_hits::total            5                       # number of ReadSharedReq MSHR hits
system.l2.ReadSharedReq_mshr_misses::.cpu.data       109407                       # number of ReadSharedReq MSHR misses
system.l2.ReadSharedReq_mshr_misses::total       109407                       # number of ReadSharedReq MSHR misses
system.l2.ReadSharedReq_mshr_miss_latency::.cpu.data   9114083000                       # number of ReadSharedReq MSHR miss cycles
system.l2.ReadSharedReq_mshr_miss_latency::total   9114083000                       # number of ReadSharedReq MSHR miss cycles
system.l2.ReadSharedReq_mshr_miss_rate::.cpu.data     0.199427                       # mshr miss rate for ReadSharedReq accesses
system.l2.ReadSharedReq_mshr_miss_rate::total     0.199427                       # mshr miss rate for ReadSharedReq accesses
system.l2.ReadSharedReq_avg_mshr_miss_latency::.cpu.data 83304.386374                       # average ReadSharedReq mshr miss latency
system.l2.ReadSharedReq_avg_mshr_miss_latency::total 83304.386374                       # average ReadSharedReq mshr miss latency
system.l2.tags.pwrStateResidencyTicks::UNDEFINED 169368597000                       # Cumulative time (in ticks) in various power states
system.l2.tags.tagsinuse                  8086.855101                       # Cycle average of tags in use
system.l2.tags.total_refs                     1735883                       # Total number of references to valid blocks.
system.l2.tags.sampled_refs                    296124                       # Sample count of references to valid blocks.
system.l2.tags.avg_refs                      5.862014                       # Average number of references to valid blocks.
system.l2.tags.warmup_cycle                     87000                       # Cycle when the warmup percentage was hit.
system.l2.tags.occ_blocks::.writebacks     124.211435                       # Average occupied blocks per requestor
system.l2.tags.occ_blocks::.cpu.inst        24.048167                       # Average occupied blocks per requestor
system.l2.tags.occ_blocks::.cpu.data      7938.595499                       # Average occupied blocks per requestor
system.l2.tags.occ_percent::.writebacks      0.015163                       # Average percentage of cache occupancy
system.l2.tags.occ_percent::.cpu.inst        0.002936                       # Average percentage of cache occupancy
system.l2.tags.occ_percent::.cpu.data        0.969067                       # Average percentage of cache occupancy
system.l2.tags.occ_percent::total            0.987165                       # Average percentage of cache occupancy
system.l2.tags.occ_task_id_blocks::1024          8192                       # Occupied blocks per task id
system.l2.tags.age_task_id_blocks_1024::0           33                       # Occupied blocks per task id
system.l2.tags.age_task_id_blocks_1024::1          455                       # Occupied blocks per task id
system.l2.tags.age_task_id_blocks_1024::2         1948                       # Occupied blocks per task id
system.l2.tags.age_task_id_blocks_1024::3         5154                       # Occupied blocks per task id
system.l2.tags.age_task_id_blocks_1024::4          602                       # Occupied blocks per task id
system.l2.tags.occ_task_id_percent::1024            1                       # Percentage of cache occupancy per task id
system.l2.tags.tag_accesses                   3777324                       # Number of tag accesses
system.l2.tags.data_accesses                  3777324                       # Number of data accesses
system.cpu_voltage_domain.voltage                   1                       # Voltage in Volts
system.mem_ctrls.pwrStateResidencyTicks::UNDEFINED 169368597000                       # Cumulative time (in ticks) in various power states
system.mem_ctrls.bytes_read::.cpu.inst          42624                       # Number of bytes read from this memory
system.mem_ctrls.bytes_read::.cpu.data       18345600                       # Number of bytes read from this memory
system.mem_ctrls.bytes_read::total           18388224                       # Number of bytes read from this memory
system.mem_ctrls.bytes_inst_read::.cpu.inst        42624                       # Number of instructions bytes read from this memory
system.mem_ctrls.bytes_inst_read::total         42624                       # Number of instructions bytes read from this memory
system.mem_ctrls.bytes_written::.writebacks     12782912                       # Number of bytes written to this memory
system.mem_ctrls.bytes_written::total        12782912                       # Number of bytes written to this memory
system.mem_ctrls.num_reads::.cpu.inst             666                       # Number of read requests responded to by this memory
system.mem_ctrls.num_reads::.cpu.data          286650                       # Number of read requests responded to by this memory
system.mem_ctrls.num_reads::total              287316                       # Number of read requests responded to by this memory
system.mem_ctrls.num_writes::.writebacks       199733                       # Number of write requests responded to by this memory
system.mem_ctrls.num_writes::total             199733                       # Number of write requests responded to by this memory
system.mem_ctrls.bw_read::.cpu.inst            251664                       # Total read bandwidth from this memory (bytes/s)
system.mem_ctrls.bw_read::.cpu.data         108317600                       # Total read bandwidth from this memory (bytes/s)
system.mem_ctrls.bw_read::total             108569264                       # Total read bandwidth from this memory (bytes/s)
system.mem_ctrls.bw_inst_read::.cpu.inst       251664                       # Instruction read bandwidth from this memory (bytes/s)
system.mem_ctrls.bw_inst_read::total           251664                       # Instruction read bandwidth from this memory (bytes/s)
system.mem_ctrls.bw_write::.writebacks       75473920                       # Write bandwidth from this memory (bytes/s)
system.mem_ctrls.bw_write::total             75473920                       # Write bandwidth from this memory (bytes/s)
system.mem_ctrls.bw_total::.writebacks       75473920                       # Total bandwidth to/from this memory (bytes/s)
system.mem_ctrls.bw_total::.cpu.inst           251664                       # Total bandwidth to/from this memory (bytes/s)
system.mem_ctrls.bw_total::.cpu.data        108317600                       # Total bandwidth to/from this memory (bytes/s)
system.mem_ctrls.bw_total::total            184043185                       # Total bandwidth to/from this memory (bytes/s)
system.mem_ctrls.avgPriority_.writebacks::samples    199700.00                       # Average QoS priority value for accepted requests
system.mem_ctrls.avgPriority_.cpu.inst::samples       666.00                       # Average QoS priority value for accepted requests
system.mem_ctrls.avgPriority_.cpu.data::samples    285684.00                       # Average QoS priority value for accepted requests
system.mem_ctrls.priorityMinLatency      0.000000018750                       # per QoS priority minimum request to response latency (s)
system.mem_ctrls.priorityMaxLatency      0.007533622500                       # per QoS priority maximum request to response latency (s)
system.mem_ctrls.numReadWriteTurnArounds        11705                       # Number of turnarounds from READ to WRITE
system.mem_ctrls.numWriteReadTurnArounds        11705                       # Number of turnarounds from WRITE to READ
system.mem_ctrls.numStayReadState              803350                       # Number of times bus staying in READ state
system.mem_ctrls.numStayWriteState             188277                       # Number of times bus staying in WRITE state
system.mem_ctrls.readReqs                      287316                       # Number of read requests accepted
system.mem_ctrls.writeReqs                     199733                       # Number of write requests accepted
system.mem_ctrls.readBursts                    287316                       # Number of DRAM read bursts, including those serviced by the write queue
system.mem_ctrls.writeBursts                   199733                       # Number of DRAM write bursts, including those merged in the write queue
system.mem_ctrls.servicedByWrQ                    966                       # Number of DRAM read bursts serviced by the write queue
system.mem_ctrls.mergedWrBursts                    33                       # Number of DRAM write bursts merged with an existing one
system.mem_ctrls.neitherReadNorWriteReqs            0                       # Number of requests that are neither read nor write
system.mem_ctrls.perBankRdBursts::0             17696                       # Per bank write bursts
system.mem_ctrls.perBankRdBursts::1             18840                       # Per bank write bursts
system.mem_ctrls.perBankRdBursts::2             18473                       # Per bank write bursts
system.mem_ctrls.perBankRdBursts::3             19624                       # Per bank write bursts
system.mem_ctrls.perBankRdBursts::4             16929                       # Per bank write bursts
system.mem_ctrls.perBankRdBursts::5             17821                       # Per bank write bursts
system.mem_ctrls.perBankRdBursts::6             17786                       # Per bank write bursts
system.mem_ctrls.perBankRdBursts::7             18032                       # Per bank write bursts
system.mem_ctrls.perBankRdBursts::8             17297                       # Per bank write bursts
system.mem_ctrls.perBankRdBursts::9             16393                       # Per bank write bursts
system.mem_ctrls.perBankRdBursts::10            17029                       # Per bank write bursts
system.mem_ctrls.perBankRdBursts::11            18454                       # Per bank write bursts
system.mem_ctrls.perBankRdBursts::12            17508                       # Per bank write bursts
system.mem_ctrls.perBankRdBursts::13            18028                       # Per bank write bursts
system.mem_ctrls.perBankRdBursts::14            17867                       # Per bank write bursts
system.mem_ctrls.perBankRdBursts::15            18573                       # Per bank write bursts
system.mem_ctrls.perBankWrBursts::0             12051                       # Per bank write bursts
system.mem_ctrls.perBankWrBursts::1             13249                       # Per bank write bursts
system.mem_ctrls.perBankWrBursts::2             13128                       # Per bank write bursts
system.mem_ctrls.perBankWrBursts::3             14421                       # Per bank write bursts
system.mem_ctrls.perBankWrBursts::4             11615                       # Per bank write bursts
system.mem_ctrls.perBankWrBursts::5             12374                       # Per bank write bursts
system.mem_ctrls.perBankWrBursts::6             12290                       # Per bank write bursts
system.mem_ctrls.perBankWrBursts::7             12638                       # Per bank write bursts
system.mem_ctrls.perBankWrBursts::8             11998                       # Per bank write bursts
system.mem_ctrls.perBankWrBursts::9             11183                       # Per bank write bursts
system.mem_ctrls.perBankWrBursts::10            11882                       # Per bank write bursts
system.mem_ctrls.perBankWrBursts::11            12790                       # Per bank write bursts
system.mem_ctrls.perBankWrBursts::12            11959                       # Per bank write bursts
system.mem_ctrls.perBankWrBursts::13            12558                       # Per bank write bursts
system.mem_ctrls.perBankWrBursts::14            12336                       # Per bank write bursts
system.mem_ctrls.perBankWrBursts::15            13208                       # Per bank write bursts
system.mem_ctrls.avgRdQLen                       1.05                       # Average read queue length when enqueuing
system.mem_ctrls.avgWrQLen                      24.80                       # Average write queue length when enqueuing
system.mem_ctrls.totQLat                   4823181250                       # Total ticks spent queuing
system.mem_ctrls.totBusLat                 1431750000                       # Total ticks spent in databus transfers
system.mem_ctrls.totMemAccLat             10192243750                       # Total ticks spent from burst creation until serviced by the DRAM
system.mem_ctrls.avgQLat                     16843.66                       # Average queueing delay per DRAM burst
system.mem_ctrls.avgBusLat                    5000.00                       # Average bus latency per DRAM burst
system.mem_ctrls.avgMemAccLat                35593.66                       # Average memory access latency per DRAM burst
system.mem_ctrls.numRdRetry                         0                       # Number of times read queue was full causing retry
system.mem_ctrls.numWrRetry                         0                       # Number of times write queue was full causing retry
system.mem_ctrls.readRowHits                   145374                       # Number of row buffer hits during reads
system.mem_ctrls.writeRowHits                  101944                       # Number of row buffer hits during writes
system.mem_ctrls.readRowHitRate                 50.77                       # Row buffer hit rate for reads
system.mem_ctrls.writeRowHitRate                51.05                       # Row buffer hit rate for writes
system.mem_ctrls.readPktSize::0                     0                       # Read request sizes (log2)
system.mem_ctrls.readPktSize::1                     0                       # Read request sizes (log2)
system.mem_ctrls.readPktSize::2                     0                       # Read request sizes (log2)
system.mem_ctrls.readPktSize::3                     0                       # Read request sizes (log2)
system.mem_ctrls.readPktSize::4                     0                       # Read request sizes (log2)
system.mem_ctrls.readPktSize::5                     0                       # Read request sizes (log2)
system.mem_ctrls.readPktSize::6                287316                       # Read request sizes (log2)
system.mem_ctrls.writePktSize::0                    0                       # Write request sizes (log2)
system.mem_ctrls.writePktSize::1                    0                       # Write request sizes (log2)
system.mem_ctrls.writePktSize::2                    0                       # Write request sizes (log2)
system.mem_ctrls.writePktSize::3                    0                       # Write request sizes (log2)
system.mem_ctrls.writePktSize::4                    0                       # Write request sizes (log2)
system.mem_ctrls.writePktSize::5                    0                       # Write request sizes (log2)
system.mem_ctrls.writePktSize::6               199733                       # Write request sizes (log2)
system.mem_ctrls.rdQLenPdf::0                  231947                       # What read queue length does an incoming req see
system.mem_ctrls.rdQLenPdf::1                   54158                       # What read queue length does an incoming req see
system.mem_ctrls.rdQLenPdf::2                     139                       # What read queue length does an incoming req see
system.mem_ctrls.rdQLenPdf::3                     105                       # What read queue length does an incoming req see
system.mem_ctrls.rdQLenPdf::4                       1                       # What read queue length does an incoming req see
system.mem_ctrls.rdQLenPdf::5                       0                       # What read queue length does an incoming req see
system.mem_ctrls.rdQLenPdf::6                       0                       # What read queue length does an incoming req see
system.mem_ctrls.rdQLenPdf::7                       0                       # What read queue length does an incoming req see
system.mem_ctrls.rdQLenPdf::8                       0                       # What read queue length does an incoming req see
system.mem_ctrls.rdQLenPdf::9                       0                       # What read queue length does an incoming req see
system.mem_ctrls.rdQLenPdf::10                      0                       # What read queue length does an incoming req see
system.mem_ctrls.rdQLenPdf::11                      0                       # What read queue length does an incoming req see
system.mem_ctrls.rdQLenPdf::12                      0                       # What read queue length does an incoming req see
system.mem_ctrls.rdQLenPdf::13                      0                       # What read queue length does an incoming req see
system.mem_ctrls.rdQLenPdf::14                      0                       # What read queue length does an incoming req see
system.mem_ctrls.rdQLenPdf::15                      0                       # What read queue length does an incoming req see
system.mem_ctrls.rdQLenPdf::16                      0                       # What read queue length does an incoming req see
system.mem_ctrls.rdQLenPdf::17                      0                       # What read queue length does an incoming req see
system.mem_ctrls.rdQLenPdf::18                      0                       # What read queue length does an incoming req see
system.mem_ctrls.rdQLenPdf::19                      0                       # What read queue length does an incoming req see
system.mem_ctrls.rdQLenPdf::20                      0                       # What read queue length does an incoming req see
system.mem_ctrls.rdQLenPdf::21                      0                       # What read queue length does an incoming req see
system.mem_ctrls.rdQLenPdf::22                      0                       # What read queue length does an incoming req see
system.mem_ctrls.rdQLenPdf::23                      0                       # What read queue length does an incoming req see
system.mem_ctrls.rdQLenPdf::24                      0                       # What read queue length does an incoming req see
system.mem_ctrls.rdQLenPdf::25                      0                       # What read queue length does an incoming req see
system.mem_ctrls.rdQLenPdf::26                      0                       # What read queue length does an incoming req see
system.mem_ctrls.rdQLenPdf::27                      0                       # What read queue length does an incoming req see
system.mem_ctrls.rdQLenPdf::28                      0                       # What read queue length does an incoming req see
system.mem_ctrls.rdQLenPdf::29                      0                       # What read queue length does an incoming req see
system.mem_ctrls.rdQLenPdf::30                      0                       # What read queue length does an incoming req see
system.mem_ctrls.rdQLenPdf::31                      0                       # What read queue length does an incoming req see
system.mem_ctrls.wrQLenPdf::0                       1                       # What write queue length does an incoming req see
system.mem_ctrls.wrQLenPdf::1                       1                       # What write queue length does an incoming req see
system.mem_ctrls.wrQLenPdf::2                       1                       # What write queue length does an incoming req see
system.mem_ctrls.wrQLenPdf::3                       1                       # What write queue length does an incoming req see
system.mem_ctrls.wrQLenPdf::4                       1                       # What write queue length does an incoming req see
system.mem_ctrls.wrQLenPdf::5                       1                       # What write queue length does an incoming req see
system.mem_ctrls.wrQLenPdf::6                       1                       # What write queue length does an incoming req see
system.mem_ctrls.wrQLenPdf::7                       1                       # What write queue length does an incoming req see
system.mem_ctrls.wrQLenPdf::8                       1                       # What write queue length does an incoming req see
system.mem_ctrls.wrQLenPdf::9                       1                       # What write queue length does an incoming req see
system.mem_ctrls.wrQLenPdf::10                      1                       # What write queue length does an incoming req see
system.mem_ctrls.wrQLenPdf::11                      1                       # What write queue length does an incoming req see
system.mem_ctrls.wrQLenPdf::12                      1                       # What write queue length does an incoming req see
system.mem_ctrls.wrQLenPdf::13                      1                       # What write queue length does an incoming req see
system.mem_ctrls.wrQLenPdf::14                      1                       # What write queue length does an incoming req see
system.mem_ctrls.wrQLenPdf::15                   5733                       # What write queue length does an incoming req see
system.mem_ctrls.wrQLenPdf::16                   6053                       # What write queue length does an incoming req see
system.mem_ctrls.wrQLenPdf::17                  11522                       # What write queue length does an incoming req see
system.mem_ctrls.wrQLenPdf::18                  11787                       # What write queue length does an incoming req see
system.mem_ctrls.wrQLenPdf::19                  11782                       # What write queue length does an incoming req see
system.mem_ctrls.wrQLenPdf::20                  11779                       # What write queue length does an incoming req see
system.mem_ctrls.wrQLenPdf::21                  11807                       # What write queue length does an incoming req see
system.mem_ctrls.wrQLenPdf::22                  11782                       # What write queue length does an incoming req see
system.mem_ctrls.wrQLenPdf::23                  11762                       # What write queue length does an incoming req see
system.mem_ctrls.wrQLenPdf::24                  11782                       # What write queue length does an incoming req see
system.mem_ctrls.wrQLenPdf::25                  11758                       # What write queue length does an incoming req see
system.mem_ctrls.wrQLenPdf::26                  11760                       # What write queue length does an incoming req see
system.mem_ctrls.wrQLenPdf::27                  11741                       # What write queue length does an incoming req see
system.mem_ctrls.wrQLenPdf::28                  11749                       # What write queue length does an incoming req see
system.mem_ctrls.wrQLenPdf::29                  11740                       # What write queue length does an incoming req see
system.mem_ctrls.wrQLenPdf::30                  11712                       # What write queue length does an incoming req see
system.mem_ctrls.wrQLenPdf::31                  11726                       # What write queue length does an incoming req see
system.mem_ctrls.wrQLenPdf::32                  11705                       # What write queue length does an incoming req see
system.mem_ctrls.wrQLenPdf::33                      5                       # What write queue length does an incoming req see
system.mem_ctrls.wrQLenPdf::34                      0                       # What write queue length does an incoming req see
system.mem_ctrls.wrQLenPdf::35                      0                       # What write queue length does an incoming req see
system.mem_ctrls.wrQLenPdf::36                      0                       # What write queue length does an incoming req see
system.mem_ctrls.wrQLenPdf::37                      0                       # What write queue length does an incoming req see
system.mem_ctrls.wrQLenPdf::38                      0                       # What write queue length does an incoming req see
system.mem_ctrls.wrQLenPdf::39                      0                       # What write queue length does an incoming req see
system.mem_ctrls.wrQLenPdf::40                      0                       # What write queue length does an incoming req see
system.mem_ctrls.wrQLenPdf::41                      0                       # What write queue length does an incoming req see
system.mem_ctrls.wrQLenPdf::42                      0                       # What write queue length does an incoming req see
system.mem_ctrls.wrQLenPdf::43                      0                       # What write queue length does an incoming req see
system.mem_ctrls.wrQLenPdf::44                      0                       # What write queue length does an incoming req see
system.mem_ctrls.wrQLenPdf::45                      0                       # What write queue length does an incoming req see
system.mem_ctrls.wrQLenPdf::46                      0                       # What write queue length does an incoming req see
system.mem_ctrls.wrQLenPdf::47                      0                       # What write queue length does an incoming req see
system.mem_ctrls.wrQLenPdf::48                      0                       # What write queue length does an incoming req see
system.mem_ctrls.wrQLenPdf::49                      0                       # What write queue length does an incoming req see
system.mem_ctrls.wrQLenPdf::50                      0                       # What write queue length does an incoming req see
system.mem_ctrls.wrQLenPdf::51                      0                       # What write queue length does an incoming req see
system.mem_ctrls.wrQLenPdf::52                      0                       # What write queue length does an incoming req see
system.mem_ctrls.wrQLenPdf::53                      0                       # What write queue length does an incoming req see
system.mem_ctrls.wrQLenPdf::54                      0                       # What write queue length does an incoming req see
system.mem_ctrls.wrQLenPdf::55                      0                       # What write queue length does an incoming req see
system.mem_ctrls.wrQLenPdf::56                      0                       # What write queue length does an incoming req see
system.mem_ctrls.wrQLenPdf::57                      0                       # What write queue length does an incoming req see
system.mem_ctrls.wrQLenPdf::58                      0                       # What write queue length does an incoming req see
system.mem_ctrls.wrQLenPdf::59                      0                       # What write queue length does an incoming req see
system.mem_ctrls.wrQLenPdf::60                      0                       # What write queue length does an incoming req see
system.mem_ctrls.wrQLenPdf::61                      0                       # What write queue length does an incoming req see
system.mem_ctrls.wrQLenPdf::62                      0                       # What write queue length does an incoming req see
system.mem_ctrls.wrQLenPdf::63                      0                       # What write queue length does an incoming req see
system.mem_ctrls.bytesPerActivate::samples       238710                       # Bytes accessed per row activation
system.mem_ctrls.bytesPerActivate::mean    130.307067                       # Bytes accessed per row activation
system.mem_ctrls.bytesPerActivate::gmean    88.088940                       # Bytes accessed per row activation
system.mem_ctrls.bytesPerActivate::stdev   188.718356                       # Bytes accessed per row activation
system.mem_ctrls.bytesPerActivate::0-127       184054     77.10%     77.10% # Bytes accessed per row activation
system.mem_ctrls.bytesPerActivate::128-255        29702     12.44%     89.55% # Bytes accessed per row activation
system.mem_ctrls.bytesPerActivate::256-383         5838      2.45%     91.99% # Bytes accessed per row activation
system.mem_ctrls.bytesPerActivate::384-511         1574      0.66%     92.65% # Bytes accessed per row activation
system.mem_ctrls.bytesPerActivate::512-639         9123      3.82%     96.47% # Bytes accessed per row activation
system.mem_ctrls.bytesPerActivate::640-767          592      0.25%     96.72% # Bytes accessed per row activation
system.mem_ctrls.bytesPerActivate::768-895          750      0.31%     97.04% # Bytes accessed per row activation
system.mem_ctrls.bytesPerActivate::896-1023          647      0.27%     97.31% # Bytes accessed per row activation
system.mem_ctrls.bytesPerActivate::1024-1151         6430      2.69%    100.00% # Bytes accessed per row activation
system.mem_ctrls.bytesPerActivate::total       238710                       # Bytes accessed per row activation
system.mem_ctrls.rdPerTurnAround::samples        11705                       # Reads before turning the bus around for writes
system.mem_ctrls.rdPerTurnAround::mean      24.463392                       # Reads before turning the bus around for writes
system.mem_ctrls.rdPerTurnAround::gmean     22.060405                       # Reads before turning the bus around for writes
system.mem_ctrls.rdPerTurnAround::stdev     26.646487                       # Reads before turning the bus around for writes
system.mem_ctrls.rdPerTurnAround::0-63          11506     98.30%     98.30% # Reads before turning the bus around for writes
system.mem_ctrls.rdPerTurnAround::64-127          134      1.14%     99.44% # Reads before turning the bus around for writes
system.mem_ctrls.rdPerTurnAround::128-191           22      0.19%     99.63% # Reads before turning the bus around for writes
system.mem_ctrls.rdPerTurnAround::192-255            9      0.08%     99.71% # Reads before turning the bus around for writes
system.mem_ctrls.rdPerTurnAround::256-319           24      0.21%     99.91% # Reads before turning the bus around for writes
[...]
system.cpu.icache.tags.occ_percent::.cpu.inst     0.242906                       # Average percentage of cache occupancy
system.cpu.icache.tags.occ_percent::total     0.242906                       # Average percentage of cache occupancy
system.cpu.icache.tags.occ_task_id_blocks::1024          598                       # Occupied blocks per task id
system.cpu.icache.tags.age_task_id_blocks_1024::4          598                       # Occupied blocks per task id
system.cpu.icache.tags.occ_task_id_percent::1024     0.291992                       # Percentage of cache occupancy per task id
system.cpu.icache.tags.tag_accesses          10200027                       # Number of tag accesses
system.cpu.icache.tags.data_accesses         10200027                       # Number of data accesses
system.cpu.dtb.walker.pwrStateResidencyTicks::UNDEFINED 169368597000                       # Cumulative time (in ticks) in various power states
system.cpu.dtb.stage2_mmu.stage2_tlb.walker.pwrStateResidencyTicks::UNDEFINED 169368597000                       # Cumulative time (in ticks) in various power states
system.cpu.dcache.pwrStateResidencyTicks::UNDEFINED 169368597000                       # Cumulative time (in ticks) in various power states
system.cpu.dcache.demand_hits::.cpu.data     51245673                       # number of demand (read+write) hits
system.cpu.dcache.demand_hits::total         51245673                       # number of demand (read+write) hits
system.cpu.dcache.overall_hits::.cpu.data     51246135                       # number of overall hits
system.cpu.dcache.overall_hits::total        51246135                       # number of overall hits
system.cpu.dcache.demand_misses::.cpu.data       918324                       # number of demand (read+write) misses
system.cpu.dcache.demand_misses::total         918324                       # number of demand (read+write) misses
system.cpu.dcache.overall_misses::.cpu.data       926279                       # number of overall misses
system.cpu.dcache.overall_misses::total        926279                       # number of overall misses
system.cpu.dcache.demand_miss_latency::.cpu.data  48445092000                       # number of demand (read+write) miss cycles
system.cpu.dcache.demand_miss_latency::total  48445092000                       # number of demand (read+write) miss cycles
system.cpu.dcache.overall_miss_latency::.cpu.data  48445092000                       # number of overall miss cycles
system.cpu.dcache.overall_miss_latency::total  48445092000                       # number of overall miss cycles
system.cpu.dcache.demand_accesses::.cpu.data     52163997                       # number of demand (read+write) accesses
system.cpu.dcache.demand_accesses::total     52163997                       # number of demand (read+write) accesses
system.cpu.dcache.overall_accesses::.cpu.data     52172414                       # number of overall (read+write) accesses
system.cpu.dcache.overall_accesses::total     52172414                       # number of overall (read+write) accesses
system.cpu.dcache.demand_miss_rate::.cpu.data     0.017605                       # miss rate for demand accesses
system.cpu.dcache.demand_miss_rate::total     0.017605                       # miss rate for demand accesses
system.cpu.dcache.overall_miss_rate::.cpu.data     0.017754                       # miss rate for overall accesses
system.cpu.dcache.overall_miss_rate::total     0.017754                       # miss rate for overall accesses
system.cpu.dcache.demand_avg_miss_latency::.cpu.data 52753.812380                       # average overall miss latency
system.cpu.dcache.demand_avg_miss_latency::total 52753.812380                       # average overall miss latency
system.cpu.dcache.overall_avg_miss_latency::.cpu.data 52300.756036                       # average overall miss latency
system.cpu.dcache.overall_avg_miss_latency::total 52300.756036                       # average overall miss latency
system.cpu.dcache.blocked_cycles::no_mshrs        94944                       # number of cycles access was blocked
system.cpu.dcache.blocked_cycles::no_targets            0                       # number of cycles access was blocked
system.cpu.dcache.blocked::no_mshrs              3119                       # number of cycles access was blocked
system.cpu.dcache.blocked::no_targets               0                       # number of cycles access was blocked
system.cpu.dcache.avg_blocked_cycles::no_mshrs    30.440526                       # average number of cycles each access was blocked
system.cpu.dcache.avg_blocked_cycles::no_targets          nan                       # average number of cycles each access was blocked
system.cpu.dcache.writebacks::.writebacks       769130                       # number of writebacks
system.cpu.dcache.writebacks::total            769130                       # number of writebacks
system.cpu.dcache.demand_mshr_hits::.cpu.data        55563                       # number of demand (read+write) MSHR hits
system.cpu.dcache.demand_mshr_hits::total        55563                       # number of demand (read+write) MSHR hits
system.cpu.dcache.overall_mshr_hits::.cpu.data        55563                       # number of overall MSHR hits
system.cpu.dcache.overall_mshr_hits::total        55563                       # number of overall MSHR hits
system.cpu.dcache.demand_mshr_misses::.cpu.data       862761                       # number of demand (read+write) MSHR misses
system.cpu.dcache.demand_mshr_misses::total       862761                       # number of demand (read+write) MSHR misses
system.cpu.dcache.overall_mshr_misses::.cpu.data       870711                       # number of overall MSHR misses
system.cpu.dcache.overall_mshr_misses::total       870711                       # number of overall MSHR misses
system.cpu.dcache.demand_mshr_miss_latency::.cpu.data  45001687000                       # number of demand (read+write) MSHR miss cycles
system.cpu.dcache.demand_mshr_miss_latency::total  45001687000                       # number of demand (read+write) MSHR miss cycles
system.cpu.dcache.overall_mshr_miss_latency::.cpu.data  45805821999                       # number of overall MSHR miss cycles
system.cpu.dcache.overall_mshr_miss_latency::total  45805821999                       # number of overall MSHR miss cycles
system.cpu.dcache.demand_mshr_miss_rate::.cpu.data     0.016539                       # mshr miss rate for demand accesses
system.cpu.dcache.demand_mshr_miss_rate::total     0.016539                       # mshr miss rate for demand accesses
system.cpu.dcache.overall_mshr_miss_rate::.cpu.data     0.016689                       # mshr miss rate for overall accesses
system.cpu.dcache.overall_mshr_miss_rate::total     0.016689                       # mshr miss rate for overall accesses
system.cpu.dcache.demand_avg_mshr_miss_latency::.cpu.data 52160.084890                       # average overall mshr miss latency
system.cpu.dcache.demand_avg_mshr_miss_latency::total 52160.084890                       # average overall mshr miss latency
system.cpu.dcache.overall_avg_mshr_miss_latency::.cpu.data 52607.377188                       # average overall mshr miss latency
system.cpu.dcache.overall_avg_mshr_miss_latency::total 52607.377188                       # average overall mshr miss latency
system.cpu.dcache.replacements                 869691                       # number of replacements
system.cpu.dcache.ReadReq_hits::.cpu.data     40643459                       # number of ReadReq hits
system.cpu.dcache.ReadReq_hits::total        40643459                       # number of ReadReq hits
system.cpu.dcache.ReadReq_misses::.cpu.data       542359                       # number of ReadReq misses
system.cpu.dcache.ReadReq_misses::total        542359                       # number of ReadReq misses
system.cpu.dcache.ReadReq_miss_latency::.cpu.data  22688090000                       # number of ReadReq miss cycles
system.cpu.dcache.ReadReq_miss_latency::total  22688090000                       # number of ReadReq miss cycles
system.cpu.dcache.ReadReq_accesses::.cpu.data     41185818                       # number of ReadReq accesses(hits+misses)
system.cpu.dcache.ReadReq_accesses::total     41185818                       # number of ReadReq accesses(hits+misses)
system.cpu.dcache.ReadReq_miss_rate::.cpu.data     0.013169                       # miss rate for ReadReq accesses
system.cpu.dcache.ReadReq_miss_rate::total     0.013169                       # miss rate for ReadReq accesses
system.cpu.dcache.ReadReq_avg_miss_latency::.cpu.data 41832.236581                       # average ReadReq miss latency
system.cpu.dcache.ReadReq_avg_miss_latency::total 41832.236581                       # average ReadReq miss latency
system.cpu.dcache.ReadReq_mshr_hits::.cpu.data         1618                       # number of ReadReq MSHR hits
system.cpu.dcache.ReadReq_mshr_hits::total         1618                       # number of ReadReq MSHR hits
system.cpu.dcache.ReadReq_mshr_misses::.cpu.data       540741                       # number of ReadReq MSHR misses
system.cpu.dcache.ReadReq_mshr_misses::total       540741                       # number of ReadReq MSHR misses
system.cpu.dcache.ReadReq_mshr_miss_latency::.cpu.data  21532162000                       # number of ReadReq MSHR miss cycles
system.cpu.dcache.ReadReq_mshr_miss_latency::total  21532162000                       # number of ReadReq MSHR miss cycles
system.cpu.dcache.ReadReq_mshr_miss_rate::.cpu.data     0.013129                       # mshr miss rate for ReadReq accesses
system.cpu.dcache.ReadReq_mshr_miss_rate::total     0.013129                       # mshr miss rate for ReadReq accesses
system.cpu.dcache.ReadReq_avg_mshr_miss_latency::.cpu.data 39819.732552                       # average ReadReq mshr miss latency
system.cpu.dcache.ReadReq_avg_mshr_miss_latency::total 39819.732552                       # average ReadReq mshr miss latency
system.cpu.dcache.WriteReq_hits::.cpu.data     10602214                       # number of WriteReq hits
system.cpu.dcache.WriteReq_hits::total       10602214                       # number of WriteReq hits
system.cpu.dcache.WriteReq_misses::.cpu.data       375965                       # number of WriteReq misses
system.cpu.dcache.WriteReq_misses::total       375965                       # number of WriteReq misses
system.cpu.dcache.WriteReq_miss_latency::.cpu.data  25757002000                       # number of WriteReq miss cycles
system.cpu.dcache.WriteReq_miss_latency::total  25757002000                       # number of WriteReq miss cycles
system.cpu.dcache.WriteReq_accesses::.cpu.data     10978179                       # number of WriteReq accesses(hits+misses)
system.cpu.dcache.WriteReq_accesses::total     10978179                       # number of WriteReq accesses(hits+misses)
system.cpu.dcache.WriteReq_miss_rate::.cpu.data     0.034247                       # miss rate for WriteReq accesses
system.cpu.dcache.WriteReq_miss_rate::total     0.034247                       # miss rate for WriteReq accesses
system.cpu.dcache.WriteReq_avg_miss_latency::.cpu.data 68509.042065                       # average WriteReq miss latency
system.cpu.dcache.WriteReq_avg_miss_latency::total 68509.042065                       # average WriteReq miss latency
system.cpu.dcache.WriteReq_mshr_hits::.cpu.data        53945                       # number of WriteReq MSHR hits
system.cpu.dcache.WriteReq_mshr_hits::total        53945                       # number of WriteReq MSHR hits
system.cpu.dcache.WriteReq_mshr_misses::.cpu.data       322020                       # number of WriteReq MSHR misses
system.cpu.dcache.WriteReq_mshr_misses::total       322020                       # number of WriteReq MSHR misses
system.cpu.dcache.WriteReq_mshr_miss_latency::.cpu.data  23469525000                       # number of WriteReq MSHR miss cycles
system.cpu.dcache.WriteReq_mshr_miss_latency::total  23469525000                       # number of WriteReq MSHR miss cycles
system.cpu.dcache.WriteReq_mshr_miss_rate::.cpu.data     0.029333                       # mshr miss rate for WriteReq accesses
system.cpu.dcache.WriteReq_mshr_miss_rate::total     0.029333                       # mshr miss rate for WriteReq accesses
system.cpu.dcache.WriteReq_avg_mshr_miss_latency::.cpu.data 72882.196758                       # average WriteReq mshr miss latency
system.cpu.dcache.WriteReq_avg_mshr_miss_latency::total 72882.196758                       # average WriteReq mshr miss latency
system.cpu.dcache.SoftPFReq_hits::.cpu.data          462                       # number of SoftPFReq hits
system.cpu.dcache.SoftPFReq_hits::total           462                       # number of SoftPFReq hits
system.cpu.dcache.SoftPFReq_misses::.cpu.data         7955                       # number of SoftPFReq misses
system.cpu.dcache.SoftPFReq_misses::total         7955                       # number of SoftPFReq misses
system.cpu.dcache.SoftPFReq_accesses::.cpu.data         8417                       # number of SoftPFReq accesses(hits+misses)
system.cpu.dcache.SoftPFReq_accesses::total         8417                       # number of SoftPFReq accesses(hits+misses)
system.cpu.dcache.SoftPFReq_miss_rate::.cpu.data     0.945111                       # miss rate for SoftPFReq accesses
system.cpu.dcache.SoftPFReq_miss_rate::total     0.945111                       # miss rate for SoftPFReq accesses
system.cpu.dcache.SoftPFReq_mshr_misses::.cpu.data         7950                       # number of SoftPFReq MSHR misses
system.cpu.dcache.SoftPFReq_mshr_misses::total         7950                       # number of SoftPFReq MSHR misses
system.cpu.dcache.SoftPFReq_mshr_miss_latency::.cpu.data    804134999                       # number of SoftPFReq MSHR miss cycles
system.cpu.dcache.SoftPFReq_mshr_miss_latency::total    804134999                       # number of SoftPFReq MSHR miss cycles
system.cpu.dcache.SoftPFReq_mshr_miss_rate::.cpu.data     0.944517                       # mshr miss rate for SoftPFReq accesses
system.cpu.dcache.SoftPFReq_mshr_miss_rate::total     0.944517                       # mshr miss rate for SoftPFReq accesses
system.cpu.dcache.SoftPFReq_avg_mshr_miss_latency::.cpu.data 101149.056478                       # average SoftPFReq mshr miss latency
system.cpu.dcache.SoftPFReq_avg_mshr_miss_latency::total 101149.056478                       # average SoftPFReq mshr miss latency
system.cpu.dcache.LoadLockedReq_hits::.cpu.data           34                       # number of LoadLockedReq hits
system.cpu.dcache.LoadLockedReq_hits::total           34                       # number of LoadLockedReq hits
system.cpu.dcache.LoadLockedReq_misses::.cpu.data            4                       # number of LoadLockedReq misses
system.cpu.dcache.LoadLockedReq_misses::total            4                       # number of LoadLockedReq misses
system.cpu.dcache.LoadLockedReq_miss_latency::.cpu.data       311000                       # number of LoadLockedReq miss cycles
system.cpu.dcache.LoadLockedReq_miss_latency::total       311000                       # number of LoadLockedReq miss cycles
system.cpu.dcache.LoadLockedReq_accesses::.cpu.data           38                       # number of LoadLockedReq accesses(hits+misses)
system.cpu.dcache.LoadLockedReq_accesses::total           38                       # number of LoadLockedReq accesses(hits+misses)
system.cpu.dcache.LoadLockedReq_miss_rate::.cpu.data     0.105263                       # miss rate for LoadLockedReq accesses
system.cpu.dcache.LoadLockedReq_miss_rate::total     0.105263                       # miss rate for LoadLockedReq accesses
system.cpu.dcache.LoadLockedReq_avg_miss_latency::.cpu.data        77750                       # average LoadLockedReq miss latency
system.cpu.dcache.LoadLockedReq_avg_miss_latency::total        77750                       # average LoadLockedReq miss latency
system.cpu.dcache.LoadLockedReq_mshr_misses::.cpu.data            4                       # number of LoadLockedReq MSHR misses
system.cpu.dcache.LoadLockedReq_mshr_misses::total            4                       # number of LoadLockedReq MSHR misses
system.cpu.dcache.LoadLockedReq_mshr_miss_latency::.cpu.data       303000                       # number of LoadLockedReq MSHR miss cycles
system.cpu.dcache.LoadLockedReq_mshr_miss_latency::total       303000                       # number of LoadLockedReq MSHR miss cycles
system.cpu.dcache.LoadLockedReq_mshr_miss_rate::.cpu.data     0.105263                       # mshr miss rate for LoadLockedReq accesses
system.cpu.dcache.LoadLockedReq_mshr_miss_rate::total     0.105263                       # mshr miss rate for LoadLockedReq accesses
system.cpu.dcache.LoadLockedReq_avg_mshr_miss_latency::.cpu.data        75750                       # average LoadLockedReq mshr miss latency
system.cpu.dcache.LoadLockedReq_avg_mshr_miss_latency::total        75750                       # average LoadLockedReq mshr miss latency
system.cpu.dcache.StoreCondReq_hits::.cpu.data           38                       # number of StoreCondReq hits
system.cpu.dcache.StoreCondReq_hits::total           38                       # number of StoreCondReq hits
system.cpu.dcache.StoreCondReq_accesses::.cpu.data           38                       # number of StoreCondReq accesses(hits+misses)
system.cpu.dcache.StoreCondReq_accesses::total           38                       # number of StoreCondReq accesses(hits+misses)
system.cpu.dcache.tags.pwrStateResidencyTicks::UNDEFINED 169368597000                       # Cumulative time (in ticks) in various power states
system.cpu.dcache.tags.tagsinuse          1013.134880                       # Cycle average of tags in use
system.cpu.dcache.tags.total_refs            52116922                       # Total number of references to valid blocks.
system.cpu.dcache.tags.sampled_refs            870715                       # Sample count of references to valid blocks.
system.cpu.dcache.tags.avg_refs             59.855317                       # Average number of references to valid blocks.
system.cpu.dcache.tags.warmup_cycle            223000                       # Cycle when the warmup percentage was hit.
system.cpu.dcache.tags.occ_blocks::.cpu.data  1013.134880                       # Average occupied blocks per requestor
system.cpu.dcache.tags.occ_percent::.cpu.data     0.989390                       # Average percentage of cache occupancy
system.cpu.dcache.tags.occ_percent::total     0.989390                       # Average percentage of cache occupancy
system.cpu.dcache.tags.occ_task_id_blocks::1024         1024                       # Occupied blocks per task id
system.cpu.dcache.tags.age_task_id_blocks_1024::0           49                       # Occupied blocks per task id
system.cpu.dcache.tags.age_task_id_blocks_1024::1          392                       # Occupied blocks per task id
system.cpu.dcache.tags.age_task_id_blocks_1024::2          528                       # Occupied blocks per task id
system.cpu.dcache.tags.age_task_id_blocks_1024::3           55                       # Occupied blocks per task id
system.cpu.dcache.tags.occ_task_id_percent::1024            1                       # Percentage of cache occupancy per task id
system.cpu.dcache.tags.tag_accesses          53043205                       # Number of tag accesses
system.cpu.dcache.tags.data_accesses         53043205                       # Number of data accesses
system.cpu.itb.walker.pwrStateResidencyTicks::UNDEFINED 169368597000                       # Cumulative time (in ticks) in various power states
system.cpu.itb.stage2_mmu.stage2_tlb.walker.pwrStateResidencyTicks::UNDEFINED 169368597000                       # Cumulative time (in ticks) in various power states

---------- End Simulation Statistics   ----------
