
---------- Begin Simulation Statistics ----------
final_tick                               177378093000                       # Number of ticks from beginning of simulation (restored from checkpoints and never reset)
host_inst_rate                                 270290                       # Simulator instruction rate (inst/s)
host_mem_usage                                 709664                       # Number of bytes of host memory used
host_op_rate                                   270829                       # Simulator op (including micro ops) rate (op/s)
host_seconds                                   369.97                       # Real time elapsed on the host
host_tick_rate                              479435148                       # Simulator tick rate (ticks/s)
sim_freq                                 1000000000000                       # Frequency of simulated ticks
sim_insts                                   100000001                       # Number of instructions simulated
sim_ops                                     100199569                       # Number of ops (including micro ops) simulated
sim_seconds                                  0.177378                       # Number of seconds simulated
sim_ticks                                177378093000                       # Number of ticks simulated
system.cpu.branchPred.BTBCorrect                    0                       # Number of correct BTB predictions (this stat may not work properly.
system.cpu.branchPred.BTBHitPct             99.572181                       # BTB Hit Percentage
system.cpu.branchPred.BTBHits                 2104238                       # Number of BTB hits
system.cpu.branchPred.BTBLookups              2113279                       # Number of BTB lookups
system.cpu.branchPred.RASInCorrect                  6                       # Number of incorrect RAS predictions.
system.cpu.branchPred.condIncorrect             83516                       # Number of conditional branches incorrect
system.cpu.branchPred.condPredicted           3635664                       # Number of conditional branches predicted
system.cpu.branchPred.indirectHits                301                       # Number of indirect target hits.
system.cpu.branchPred.indirectLookups             894                       # Number of indirect predictor lookups.
system.cpu.branchPred.indirectMisses              593                       # Number of indirect misses.
system.cpu.branchPred.lookups                 4390077                       # Number of BP lookups
system.cpu.branchPred.usedRAS                   66043                       # Number of times the RAS was used to get a target.
system.cpu.branchPredindirectMispredicted          166                       # Number of mispredicted indirect branches.
system.cpu.committedInsts                   100000001                       # Number of instructions committed
system.cpu.committedOps                     100199569                       # Number of ops (including micro ops) committed
system.cpu.cpi                               1.773781                       # CPI: cycles per instruction
system.cpu.discardedOps                        197397                       # Number of ops (including micro ops) which were discarded before commit
system.cpu.dtb.accesses                             0                       # DTB accesses
system.cpu.dtb.align_faults                         0                       # Number of TLB faults due to alignment restrictions
system.cpu.dtb.domain_faults                        0                       # Number of TLB faults due to domain restrictions
system.cpu.dtb.flush_entries                        0                       # Number of entries that have been flushed from TLB
system.cpu.dtb.flush_tlb                            0                       # Number of times complete TLB was flushed
system.cpu.dtb.flush_tlb_asid                       0                       # Number of times TLB was flushed by ASID
system.cpu.dtb.flush_tlb_mva                        0                       # Number of times TLB was flushed by MVA
system.cpu.dtb.flush_tlb_mva_asid                   0                       # Number of times TLB was flushed by MVA & ASID
system.cpu.dtb.hits                                 0                       # DTB hits
system.cpu.dtb.inst_accesses                        0                       # ITB inst accesses
system.cpu.dtb.inst_hits                            0                       # ITB inst hits
system.cpu.dtb.inst_misses                          0                       # ITB inst misses
system.cpu.dtb.misses                               0                       # DTB misses
system.cpu.dtb.perms_faults                         0                       # Number of TLB faults due to permissions restrictions
system.cpu.dtb.prefetch_faults                      0                       # Number of TLB faults due to prefetch
system.cpu.dtb.read_accesses                        0                       # DTB read accesses
system.cpu.dtb.read_hits                            0                       # DTB read hits
system.cpu.dtb.read_misses                          0                       # DTB read misses
system.cpu.dtb.stage2_mmu.stage2_tlb.accesses            0                       # DTB accesses
system.cpu.dtb.stage2_mmu.stage2_tlb.align_faults            0                       # Number of TLB faults due to alignment restrictions
system.cpu.dtb.stage2_mmu.stage2_tlb.domain_faults            0                       # Number of TLB faults due to domain restrictions
system.cpu.dtb.stage2_mmu.stage2_tlb.flush_entries            0                       # Number of entries that have been flushed from TLB
system.cpu.dtb.stage2_mmu.stage2_tlb.flush_tlb            0                       # Number of times complete TLB was flushed
system.cpu.dtb.stage2_mmu.stage2_tlb.flush_tlb_asid            0                       # Number of times TLB was flushed by ASID
system.cpu.dtb.stage2_mmu.stage2_tlb.flush_tlb_mva            0                       # Number of times TLB was flushed by MVA
system.cpu.dtb.stage2_mmu.stage2_tlb.flush_tlb_mva_asid            0                       # Number of times TLB was flushed by MVA & ASID
system.cpu.dtb.stage2_mmu.stage2_tlb.hits            0                       # DTB hits
system.cpu.dtb.stage2_mmu.stage2_tlb.inst_accesses            0                       # ITB inst accesses
system.cpu.dtb.stage2_mmu.stage2_tlb.inst_hits            0                       # ITB inst hits
system.cpu.dtb.stage2_mmu.stage2_tlb.inst_misses            0                       # ITB inst misses
system.cpu.dtb.stage2_mmu.stage2_tlb.misses            0                       # DTB misses
system.cpu.dtb.stage2_mmu.stage2_tlb.perms_faults            0                       # Number of TLB faults due to permissions restrictions
system.cpu.dtb.stage2_mmu.stage2_tlb.prefetch_faults            0                       # Number of TLB faults due to prefetch
system.cpu.dtb.stage2_mmu.stage2_tlb.read_accesses            0                       # DTB read accesses
system.cpu.dtb.stage2_mmu.stage2_tlb.read_hits            0                       # DTB read hits
system.cpu.dtb.stage2_mmu.stage2_tlb.read_misses            0                       # DTB read misses
system.cpu.dtb.stage2_mmu.stage2_tlb.walker.walkRequestOrigin_Requested::Data            0                       # Table walker requests started/completed, data/inst
system.cpu.dtb.stage2_mmu.stage2_tlb.walker.walkRequestOrigin_Requested::Inst            0                       # Table walker requests started/completed, data/inst
system.cpu.dtb.stage2_mmu.stage2_tlb.walker.walkRequestOrigin_Requested::total            0                       # Table walker requests started/completed, data/inst
system.cpu.dtb.stage2_mmu.stage2_tlb.walker.walkRequestOrigin_Completed::Data            0                       # Table walker requests started/completed, data/inst
system.cpu.dtb.stage2_mmu.stage2_tlb.walker.walkRequestOrigin_Completed::Inst            0                       # Table walker requests started/completed, data/inst
system.cpu.dtb.stage2_mmu.stage2_tlb.walker.walkRequestOrigin_Completed::total            0                       # Table walker requests started/completed, data/inst
system.cpu.dtb.stage2_mmu.stage2_tlb.walker.walkRequestOrigin::total            0                       # Table walker requests started/completed, data/inst
system.cpu.dtb.stage2_mmu.stage2_tlb.walker.walks            0                       # Table walker walks requested
system.cpu.dtb.stage2_mmu.stage2_tlb.write_accesses            0                       # DTB write accesses
system.cpu.dtb.stage2_mmu.stage2_tlb.write_hits            0                       # DTB write hits
system.cpu.dtb.stage2_mmu.stage2_tlb.write_misses            0                       # DTB write misses
system.cpu.dtb.walker.walkRequestOrigin_Requested::Data            0                       # Table walker requests started/completed, data/inst
system.cpu.dtb.walker.walkRequestOrigin_Requested::Inst            0                       # Table walker requests started/completed, data/inst
system.cpu.dtb.walker.walkRequestOrigin_Requested::total            0                       # Table walker requests started/completed, data/inst
system.cpu.dtb.walker.walkRequestOrigin_Completed::Data            0                       # Table walker requests started/completed, data/inst
system.cpu.dtb.walker.walkRequestOrigin_Completed::Inst            0                       # Table walker requests started/completed, data/inst
system.cpu.dtb.walker.walkRequestOrigin_Completed::total            0                       # Table walker requests started/completed, data/inst
system.cpu.dtb.walker.walkRequestOrigin::total            0                       # Table walker requests started/completed, data/inst
system.cpu.dtb.walker.walks                         0                       # Table walker walks requested
system.cpu.dtb.write_accesses                       0                       # DTB write accesses
system.cpu.dtb.write_hits                           0                       # DTB write hits
system.cpu.dtb.write_misses                         0                       # DTB write misses
system.cpu.fetch2.amo_instructions                  0                       # Number of memory atomic instructions successfully decoded
system.cpu.fetch2.fp_instructions                   0                       # Number of floating point instructions successfully decoded
system.cpu.fetch2.int_instructions           42628971                       # Number of integer instructions successfully decoded
system.cpu.fetch2.load_instructions          43486062                       # Number of memory load instructions successfully decoded
system.cpu.fetch2.store_instructions         11033873                       # Number of memory store instructions successfully decoded
system.cpu.fetch2.vec_instructions                  0                       # Number of SIMD instructions successfully decoded
system.cpu.idleCycles                        43547292                       # Total number of cycles that the object has spent stopped
system.cpu.ipc                               0.563767                       # IPC: instructions per cycle
system.cpu.itb.accesses                             0                       # DTB accesses
system.cpu.itb.align_faults                         0                       # Number of TLB faults due to alignment restrictions
system.cpu.itb.domain_faults                        0                       # Number of TLB faults due to domain restrictions
system.cpu.itb.flush_entries                        0                       # Number of entries that have been flushed from TLB
system.cpu.itb.flush_tlb                            0                       # Number of times complete TLB was flushed
system.cpu.itb.flush_tlb_asid                       0                       # Number of times TLB was flushed by ASID
system.cpu.itb.flush_tlb_mva                        0                       # Number of times TLB was flushed by MVA
system.cpu.itb.flush_tlb_mva_asid                   0                       # Number of times TLB was flushed by MVA & ASID
system.cpu.itb.hits                                 0                       # DTB hits
system.cpu.itb.inst_accesses                        0                       # ITB inst accesses
system.cpu.itb.inst_hits                            0                       # ITB inst hits
system.cpu.itb.inst_misses                          0                       # ITB inst misses
system.cpu.itb.misses                               0                       # DTB misses
system.cpu.itb.perms_faults                         0                       # Number of TLB faults due to permissions restrictions
system.cpu.itb.prefetch_faults                      0                       # Number of TLB faults due to prefetch
system.cpu.itb.read_accesses                        0                       # DTB read accesses
system.cpu.itb.read_hits                            0                       # DTB read hits
system.cpu.itb.read_misses                          0                       # DTB read misses
system.cpu.itb.stage2_mmu.stage2_tlb.accesses            0                       # DTB accesses
system.cpu.itb.stage2_mmu.stage2_tlb.align_faults            0                       # Number of TLB faults due to alignment restrictions
system.cpu.itb.stage2_mmu.stage2_tlb.domain_faults            0                       # Number of TLB faults due to domain restrictions
system.cpu.itb.stage2_mmu.stage2_tlb.flush_entries            0                       # Number of entries that have been flushed from TLB
system.cpu.itb.stage2_mmu.stage2_tlb.flush_tlb            0                       # Number of times complete TLB was flushed
system.cpu.itb.stage2_mmu.stage2_tlb.flush_tlb_asid            0                       # Number of times TLB was flushed by ASID
system.cpu.itb.stage2_mmu.stage2_tlb.flush_tlb_mva            0                       # Number of times TLB was flushed by MVA
system.cpu.itb.stage2_mmu.stage2_tlb.flush_tlb_mva_asid            0                       # Number of times TLB was flushed by MVA & ASID
system.cpu.itb.stage2_mmu.stage2_tlb.hits            0                       # DTB hits
system.cpu.itb.stage2_mmu.stage2_tlb.inst_accesses            0                       # ITB inst accesses
system.cpu.itb.stage2_mmu.stage2_tlb.inst_hits            0                       # ITB inst hits
system.cpu.itb.stage2_mmu.stage2_tlb.inst_misses            0                       # ITB inst misses
system.cpu.itb.stage2_mmu.stage2_tlb.misses            0                       # DTB misses
system.cpu.itb.stage2_mmu.stage2_tlb.perms_faults            0                       # Number of TLB faults due to permissions restrictions
system.cpu.itb.stage2_mmu.stage2_tlb.prefetch_faults            0                       # Number of TLB faults due to prefetch
system.cpu.itb.stage2_mmu.stage2_tlb.read_accesses            0                       # DTB read accesses
system.cpu.itb.stage2_mmu.stage2_tlb.read_hits            0                       # DTB read hits
system.cpu.itb.stage2_mmu.stage2_tlb.read_misses            0                       # DTB read misses
system.cpu.itb.stage2_mmu.stage2_tlb.walker.walkRequestOrigin_Requested::Data            0                       # Table walker requests started/completed, data/inst
system.cpu.itb.stage2_mmu.stage2_tlb.walker.walkRequestOrigin_Requested::Inst            0                       # Table walker requests started/completed, data/inst
system.cpu.itb.stage2_mmu.stage2_tlb.walker.walkRequestOrigin_Requested::total            0                       # Table walker requests started/completed, data/inst
system.cpu.itb.stage2_mmu.stage2_tlb.walker.walkRequestOrigin_Completed::Data            0                       # Table walker requests started/completed, data/inst
system.cpu.itb.stage2_mmu.stage2_tlb.walker.walkRequestOrigin_Completed::Inst            0                       # Table walker requests started/completed, data/inst
system.cpu.itb.stage2_mmu.stage2_tlb.walker.walkRequestOrigin_Completed::total            0                       # Table walker requests started/completed, data/inst
system.cpu.itb.stage2_mmu.stage2_tlb.walker.walkRequestOrigin::total            0                       # Table walker requests started/completed, data/inst
system.cpu.itb.stage2_mmu.stage2_tlb.walker.walks            0                       # Table walker walks requested
system.cpu.itb.stage2_mmu.stage2_tlb.write_accesses            0                       # DTB write accesses
system.cpu.itb.stage2_mmu.stage2_tlb.write_hits            0                       # DTB write hits
system.cpu.itb.stage2_mmu.stage2_tlb.write_misses            0                       # DTB write misses
system.cpu.itb.walker.walkRequestOrigin_Requested::Data            0                       # Table walker requests started/completed, data/inst
system.cpu.itb.walker.walkRequestOrigin_Requested::Inst            0                       # Table walker requests started/completed, data/inst
system.cpu.itb.walker.walkRequestOrigin_Requested::total            0                       # Table walker requests started/completed, data/inst
system.cpu.itb.walker.walkRequestOrigin_Completed::Data            0                       # Table walker requests started/completed, data/inst
system.cpu.itb.walker.walkRequestOrigin_Completed::Inst            0                       # Table walker requests started/completed, data/inst
system.cpu.itb.walker.walkRequestOrigin_Completed::total            0                       # Table walker requests started/completed, data/inst
system.cpu.itb.walker.walkRequestOrigin::total            0                       # Table walker requests started/completed, data/inst
system.cpu.itb.walker.walks                         0                       # Table walker walks requested
system.cpu.itb.write_accesses                       0                       # DTB write accesses
system.cpu.itb.write_hits                           0                       # DTB write hits
system.cpu.itb.write_misses                         0                       # DTB write misses
system.cpu.numCycles                        177378093                       # number of cpu cycles simulated
system.cpu.numFetchSuspends                         0                       # Number of times Execute suspended instruction fetching
system.cpu.numWorkItemsCompleted                    0                       # number of work items this cpu completed
system.cpu.numWorkItemsStarted                      0                       # number of work items this cpu started
system.cpu.op_class_0::No_OpClass                   0      0.00%      0.00% # Class of committed instruction
system.cpu.op_class_0::IntAlu                46443154     46.35%     46.35% # Class of committed instruction
system.cpu.op_class_0::IntMult                  20720      0.02%     46.37% # Class of committed instruction
system.cpu.op_class_0::IntDiv                       0      0.00%     46.37% # Class of committed instruction
system.cpu.op_class_0::FloatAdd                     0      0.00%     46.37% # Class of committed instruction
system.cpu.op_class_0::FloatCmp                     0      0.00%     46.37% # Class of committed instruction
system.cpu.op_class_0::FloatCvt                     0      0.00%     46.37% # Class of committed instruction
system.cpu.op_class_0::FloatMult                    0      0.00%     46.37% # Class of committed instruction
system.cpu.op_class_0::FloatMultAcc                 0      0.00%     46.37% # Class of committed instruction
system.cpu.op_class_0::FloatDiv                     0      0.00%     46.37% # Class of committed instruction
system.cpu.op_class_0::FloatMisc                    0      0.00%     46.37% # Class of committed instruction
system.cpu.op_class_0::FloatSqrt                    0      0.00%     46.37% # Class of committed instruction
system.cpu.op_class_0::SimdAdd                      0      0.00%     46.37% # Class of committed instruction
system.cpu.op_class_0::SimdAddAcc                   0      0.00%     46.37% # Class of committed instruction
system.cpu.op_class_0::SimdAlu                      0      0.00%     46.37% # Class of committed instruction
system.cpu.op_class_0::SimdCmp                      0      0.00%     46.37% # Class of committed instruction
system.cpu.op_class_0::SimdCvt                      0      0.00%     46.37% # Class of committed instruction
system.cpu.op_class_0::SimdMisc                     0      0.00%     46.37% # Class of committed instruction
system.cpu.op_class_0::SimdMult                     0      0.00%     46.37% # Class of committed instruction
system.cpu.op_class_0::SimdMultAcc                  0      0.00%     46.37% # Class of committed instruction
system.cpu.op_class_0::SimdShift                    0      0.00%     46.37% # Class of committed instruction
system.cpu.op_class_0::SimdShiftAcc                 0      0.00%     46.37% # Class of committed instruction
system.cpu.op_class_0::SimdDiv                      0      0.00%     46.37% # Class of committed instruction
system.cpu.op_class_0::SimdSqrt                     0      0.00%     46.37% # Class of committed instruction
system.cpu.op_class_0::SimdFloatAdd                 0      0.00%     46.37% # Class of committed instruction
system.cpu.op_class_0::SimdFloatAlu                 0      0.00%     46.37% # Class of committed instruction
system.cpu.op_class_0::SimdFloatCmp                 0      0.00%     46.37% # Class of committed instruction
system.cpu.op_class_0::SimdFloatCvt                 0      0.00%     46.37% # Class of committed instruction
system.cpu.op_class_0::SimdFloatDiv                 0      0.00%     46.37% # Class of committed instruction
system.cpu.op_class_0::SimdFloatMisc                1      0.00%     46.37% # Class of committed instruction
system.cpu.op_class_0::SimdFloatMult                0      0.00%     46.37% # Class of committed instruction
system.cpu.op_class_0::SimdFloatMultAcc             0      0.00%     46.37% # Class of committed instruction
system.cpu.op_class_0::SimdFloatSqrt                0      0.00%     46.37% # Class of committed instruction
system.cpu.op_class_0::SimdReduceAdd                0      0.00%     46.37% # Class of committed instruction
system.cpu.op_class_0::SimdReduceAlu                0      0.00%     46.37% # Class of committed instruction
system.cpu.op_class_0::SimdReduceCmp                0      0.00%     46.37% # Class of committed instruction
system.cpu.op_class_0::SimdFloatReduceAdd            0      0.00%     46.37% # Class of committed instruction
system.cpu.op_class_0::SimdFloatReduceCmp            0      0.00%     46.37% # Class of committed instruction
system.cpu.op_class_0::SimdAes                      0      0.00%     46.37% # Class of committed instruction
system.cpu.op_class_0::SimdAesMix                   0      0.00%     46.37% # Class of committed instruction
system.cpu.op_class_0::SimdSha1Hash                 0      0.00%     46.37% # Class of committed instruction
system.cpu.op_class_0::SimdSha1Hash2                0      0.00%     46.37% # Class of committed instruction
system.cpu.op_class_0::SimdSha256Hash               0      0.00%     46.37% # Class of committed instruction
system.cpu.op_class_0::SimdSha256Hash2              0      0.00%     46.37% # Class of committed instruction
system.cpu.op_class_0::SimdShaSigma2                0      0.00%     46.37% # Class of committed instruction
system.cpu.op_class_0::SimdShaSigma3                0      0.00%     46.37% # Class of committed instruction
system.cpu.op_class_0::SimdPredAlu                  0      0.00%     46.37% # Class of committed instruction
system.cpu.op_class_0::MemRead               42756988     42.67%     89.04% # Class of committed instruction
system.cpu.op_class_0::MemWrite              10978706     10.96%    100.00% # Class of committed instruction
system.cpu.op_class_0::FloatMemRead                 0      0.00%    100.00% # Class of committed instruction
system.cpu.op_class_0::FloatMemWrite                0      0.00%    100.00% # Class of committed instruction
system.cpu.op_class_0::IprAccess                    0      0.00%    100.00% # Class of committed instruction
system.cpu.op_class_0::InstPrefetch                 0      0.00%    100.00% # Class of committed instruction
system.cpu.op_class_0::total                100199569                       # Class of committed instruction
system.cpu.tickCycles                       133830801                       # Number of cycles that the object actually ticked
system.cpu.workload.numSyscalls                    85                       # Number of system calls
system.membus.snoop_filter.hit_multi_requests            0                       # Number of requests hitting in the snoop filter with multiple (>1) holders of the requested data.
system.membus.snoop_filter.hit_multi_snoops            0                       # Number of snoops hitting in the snoop filter with multiple (>1) holders of the requested data.
system.membus.snoop_filter.hit_single_requests       279169                       # Number of requests hitting in the snoop filter with a single holder of the requested data.
system.membus.snoop_filter.hit_single_snoops            0                       # Number of snoops hitting in the snoop filter with a single holder of the requested data.
system.membus.snoop_filter.tot_requests        566773                       # Total number of requests made to the snoop filter.
system.membus.snoop_filter.tot_snoops               0                       # Total number of snoops made to the snoop filter.
system.tol2bus.snoop_filter.hit_multi_requests         2752                       # Number of requests hitting in the snoop filter with multiple (>1) holders of the requested data.
system.tol2bus.snoop_filter.hit_multi_snoops            0                       # Number of snoops hitting in the snoop filter with multiple (>1) holders of the requested data.
system.tol2bus.snoop_filter.hit_single_requests      1299802                       # Number of requests hitting in the snoop filter with a single holder of the requested data.
system.tol2bus.snoop_filter.hit_single_snoops         1429                       # Number of snoops hitting in the snoop filter with a single holder of the requested data.
system.tol2bus.snoop_filter.tot_requests      2600109                       # Total number of requests made to the snoop filter.
system.tol2bus.snoop_filter.tot_snoops           1429                       # Total number of snoops made to the snoop filter.
system.membus.pwrStateResidencyTicks::UNDEFINED 177378093000                       # Cumulative time (in ticks) in various power states
system.membus.trans_dist::ReadResp             110256                       # Transaction distribution
system.membus.trans_dist::WritebackDirty       200071                       # Transaction distribution
system.membus.trans_dist::CleanEvict            79090                       # Transaction distribution
system.membus.trans_dist::ReadExReq            177356                       # Transaction distribution
system.membus.trans_dist::ReadExResp           177356                       # Transaction distribution
system.membus.trans_dist::ReadSharedReq        110256                       # Transaction distribution
system.membus.pkt_count_system.l2.mem_side::system.mem_ctrls.port       854385                       # Packet count per connected master and slave (bytes)
system.membus.pkt_count::total                 854385                       # Packet count per connected master and slave (bytes)
system.membus.pkt_size_system.l2.mem_side::system.mem_ctrls.port     31211712                       # Cumulative packet size per connected master and slave (bytes)
system.membus.pkt_size::total                31211712                       # Cumulative packet size per connected master and slave (bytes)
system.membus.snoops                                0                       # Total snoops (count)
system.membus.snoopTraffic                          0                       # Total snoop traffic (bytes)
system.membus.snoop_fanout::samples            287612                       # Request fanout histogram
system.membus.snoop_fanout::mean                    0                       # Request fanout histogram
system.membus.snoop_fanout::stdev                   0                       # Request fanout histogram
system.membus.snoop_fanout::underflows              0      0.00%      0.00% # Request fanout histogram
system.membus.snoop_fanout::0                  287612    100.00%    100.00% # Request fanout histogram
system.membus.snoop_fanout::1                       0      0.00%    100.00% # Request fanout histogram
system.membus.snoop_fanout::overflows               0      0.00%    100.00% # Request fanout histogram
system.membus.snoop_fanout::min_value               0                       # Request fanout histogram
system.membus.snoop_fanout::max_value               0                       # Request fanout histogram
system.membus.snoop_fanout::total              287612                       # Request fanout histogram
system.membus.respLayer1.occupancy         1565748250                       # Layer occupancy (ticks)
system.membus.respLayer1.utilization              0.9                       # Layer utilization (%)
system.membus.reqLayer0.occupancy          1367057000                       # Layer occupancy (ticks)
system.membus.reqLayer0.utilization               0.8                       # Layer utilization (%)
system.tol2bus.pwrStateResidencyTicks::UNDEFINED 177378093000                       # Cumulative time (in ticks) in various power states
system.tol2bus.trans_dist::ReadResp            837308                       # Transaction distribution
system.tol2bus.trans_dist::WritebackDirty      1357681                       # Transaction distribution
system.tol2bus.trans_dist::WritebackClean         2403                       # Transaction distribution
system.tol2bus.trans_dist::CleanEvict          220213                       # Transaction distribution
system.tol2bus.trans_dist::ReadExReq           463001                       # Transaction distribution
system.tol2bus.trans_dist::ReadExResp          463001                       # Transaction distribution
system.tol2bus.trans_dist::ReadCleanReq          2656                       # Transaction distribution
system.tol2bus.trans_dist::ReadSharedReq       834652                       # Transaction distribution
system.tol2bus.pkt_count_system.cpu.icache.mem_side::system.l2.cpu_side         7715                       # Packet count per connected master and slave (bytes)
system.tol2bus.pkt_count_system.cpu.dcache.mem_side::system.l2.cpu_side      3892703                       # Packet count per connected master and slave (bytes)
system.tol2bus.pkt_count::total               3900418                       # Packet count per connected master and slave (bytes)
system.tol2bus.pkt_size_system.cpu.icache.mem_side::system.l2.cpu_side       323776                       # Cumulative packet size per connected master and slave (bytes)
system.tol2bus.pkt_size_system.cpu.dcache.mem_side::system.l2.cpu_side    157136832                       # Cumulative packet size per connected master and slave (bytes)
system.tol2bus.pkt_size::total              157460608                       # Cumulative packet size per connected master and slave (bytes)
system.tol2bus.snoops                          280497                       # Total snoops (count)
system.tol2bus.snoopTraffic                  12804544                       # Total snoop traffic (bytes)
system.tol2bus.snoop_fanout::samples          1580806                       # Request fanout histogram
system.tol2bus.snoop_fanout::mean            0.002646                       # Request fanout histogram
system.tol2bus.snoop_fanout::stdev           0.051372                       # Request fanout histogram
system.tol2bus.snoop_fanout::underflows             0      0.00%      0.00% # Request fanout histogram
system.tol2bus.snoop_fanout::0                1576623     99.74%     99.74% # Request fanout histogram
system.tol2bus.snoop_fanout::1                   4183      0.26%    100.00% # Request fanout histogram
system.tol2bus.snoop_fanout::2                      0      0.00%    100.00% # Request fanout histogram
system.tol2bus.snoop_fanout::overflows              0      0.00%    100.00% # Request fanout histogram
system.tol2bus.snoop_fanout::min_value              0                       # Request fanout histogram
system.tol2bus.snoop_fanout::max_value              1                       # Request fanout histogram
system.tol2bus.snoop_fanout::total            1580806                       # Request fanout histogram
system.tol2bus.reqLayer0.occupancy         4920135000                       # Layer occupancy (ticks)
system.tol2bus.reqLayer0.utilization              2.8                       # Layer utilization (%)
system.tol2bus.respLayer1.occupancy        3892965993                       # Layer occupancy (ticks)
system.tol2bus.respLayer1.utilization             2.2                       # Layer utilization (%)
system.tol2bus.respLayer0.occupancy           7972995                       # Layer occupancy (ticks)
system.tol2bus.respLayer0.utilization             0.0                       # Layer utilization (%)
system.voltage_domain.voltage                       1                       # Voltage in Volts
system.clk_domain.clock                          1000                       # Clock period in ticks
system.l2.pwrStateResidencyTicks::UNDEFINED 177378093000                       # Cumulative time (in ticks) in various power states
system.l2.demand_hits::.cpu.inst                 1933                       # number of demand (read+write) hits
system.l2.demand_hits::.cpu.data              1010759                       # number of demand (read+write) hits
system.l2.demand_hits::total                  1012692                       # number of demand (read+write) hits
system.l2.overall_hits::.cpu.inst                1933                       # number of overall hits
system.l2.overall_hits::.cpu.data             1010759                       # number of overall hits
system.l2.overall_hits::total                 1012692                       # number of overall hits
system.l2.demand_misses::.cpu.inst                723                       # number of demand (read+write) misses
system.l2.demand_misses::.cpu.data             286894                       # number of demand (read+write) misses
system.l2.demand_misses::total                 287617                       # number of demand (read+write) misses
system.l2.overall_misses::.cpu.inst               723                       # number of overall misses
system.l2.overall_misses::.cpu.data            286894                       # number of overall misses
system.l2.overall_misses::total                287617                       # number of overall misses
system.l2.demand_miss_latency::.cpu.inst     71883000                       # number of demand (read+write) miss cycles
system.l2.demand_miss_latency::.cpu.data  30645030000                       # number of demand (read+write) miss cycles
system.l2.demand_miss_latency::total      30716913000                       # number of demand (read+write) miss cycles
system.l2.overall_miss_latency::.cpu.inst     71883000                       # number of overall miss cycles
system.l2.overall_miss_latency::.cpu.data  30645030000                       # number of overall miss cycles
system.l2.overall_miss_latency::total     30716913000                       # number of overall miss cycles
system.l2.demand_accesses::.cpu.inst             2656                       # number of demand (read+write) accesses
system.l2.demand_accesses::.cpu.data          1297653                       # number of demand (read+write) accesses
system.l2.demand_accesses::total              1300309                       # number of demand (read+write) accesses
system.l2.overall_accesses::.cpu.inst            2656                       # number of overall (read+write) accesses
system.l2.overall_accesses::.cpu.data         1297653                       # number of overall (read+write) accesses
system.l2.overall_accesses::total             1300309                       # number of overall (read+write) accesses
system.l2.demand_miss_rate::.cpu.inst        0.272214                       # miss rate for demand accesses
system.l2.demand_miss_rate::.cpu.data        0.221087                       # miss rate for demand accesses
system.l2.demand_miss_rate::total            0.221191                       # miss rate for demand accesses
system.l2.overall_miss_rate::.cpu.inst       0.272214                       # miss rate for overall accesses
system.l2.overall_miss_rate::.cpu.data       0.221087                       # miss rate for overall accesses
system.l2.overall_miss_rate::total           0.221191                       # miss rate for overall accesses
system.l2.demand_avg_miss_latency::.cpu.inst 99423.236515                       # average overall miss latency
system.l2.demand_avg_miss_latency::.cpu.data 106816.559426                       # average overall miss latency
system.l2.demand_avg_miss_latency::total 106797.974390                       # average overall miss latency
system.l2.overall_avg_miss_latency::.cpu.inst 99423.236515                       # average overall miss latency
system.l2.overall_avg_miss_latency::.cpu.data 106816.559426                       # average overall miss latency
system.l2.overall_avg_miss_latency::total 106797.974390                       # average overall miss latency
system.l2.blocked_cycles::no_mshrs                  0                       # number of cycles access was blocked
system.l2.blocked_cycles::no_targets                0                       # number of cycles access was blocked
system.l2.blocked::no_mshrs                         0                       # number of cycles access was blocked
system.l2.blocked::no_targets                       0                       # number of cycles access was blocked
system.l2.avg_blocked_cycles::no_mshrs            nan                       # average number of cycles each access was blocked
system.l2.avg_blocked_cycles::no_targets          nan                       # average number of cycles each access was blocked
system.l2.writebacks::.writebacks              200071                       # number of writebacks
system.l2.writebacks::total                    200071                       # number of writebacks
system.l2.demand_mshr_hits::.cpu.data               5                       # number of demand (read+write) MSHR hits
system.l2.demand_mshr_hits::total                   5                       # number of demand (read+write) MSHR hits
system.l2.overall_mshr_hits::.cpu.data              5                       # number of overall MSHR hits
system.l2.overall_mshr_hits::total                  5                       # number of overall MSHR hits
system.l2.demand_mshr_misses::.cpu.inst           723                       # number of demand (read+write) MSHR misses
system.l2.demand_mshr_misses::.cpu.data        286889                       # number of demand (read+write) MSHR misses
system.l2.demand_mshr_misses::total            287612                       # number of demand (read+write) MSHR misses
system.l2.overall_mshr_misses::.cpu.inst          723                       # number of overall MSHR misses
system.l2.overall_mshr_misses::.cpu.data       286889                       # number of overall MSHR misses
system.l2.overall_mshr_misses::total           287612                       # number of overall MSHR misses
system.l2.demand_mshr_miss_latency::.cpu.inst     57423000                       # number of demand (read+write) MSHR miss cycles
system.l2.demand_mshr_miss_latency::.cpu.data  24906627000                       # number of demand (read+write) MSHR miss cycles
system.l2.demand_mshr_miss_latency::total  24964050000                       # number of demand (read+write) MSHR miss cycles
system.l2.overall_mshr_miss_latency::.cpu.inst     57423000                       # number of overall MSHR miss cycles
system.l2.overall_mshr_miss_latency::.cpu.data  24906627000                       # number of overall MSHR miss cycles
system.l2.overall_mshr_miss_latency::total  24964050000                       # number of overall MSHR miss cycles
system.l2.demand_mshr_miss_rate::.cpu.inst     0.272214                       # mshr miss rate for demand accesses
system.l2.demand_mshr_miss_rate::.cpu.data     0.221083                       # mshr miss rate for demand accesses
system.l2.demand_mshr_miss_rate::total       0.221187                       # mshr miss rate for demand accesses
system.l2.overall_mshr_miss_rate::.cpu.inst     0.272214                       # mshr miss rate for overall accesses
system.l2.overall_mshr_miss_rate::.cpu.data     0.221083                       # mshr miss rate for overall accesses
system.l2.overall_mshr_miss_rate::total      0.221187                       # mshr miss rate for overall accesses
system.l2.demand_avg_mshr_miss_latency::.cpu.inst 79423.236515                       # average overall mshr miss latency
system.l2.demand_avg_mshr_miss_latency::.cpu.data 86816.249490                       # average overall mshr miss latency
system.l2.demand_avg_mshr_miss_latency::total 86797.664910                       # average overall mshr miss latency
system.l2.overall_avg_mshr_miss_latency::.cpu.inst 79423.236515                       # average overall mshr miss latency
system.l2.overall_avg_mshr_miss_latency::.cpu.data 86816.249490                       # average overall mshr miss latency
system.l2.overall_avg_mshr_miss_latency::total 86797.664910                       # average overall mshr miss latency
system.l2.replacements                         280497                       # number of replacements
system.l2.WritebackDirty_hits::.writebacks      1157610                       # number of WritebackDirty hits
system.l2.WritebackDirty_hits::total          1157610                       # number of WritebackDirty hits
system.l2.WritebackDirty_accesses::.writebacks      1157610                       # number of WritebackDirty accesses(hits+misses)
system.l2.WritebackDirty_accesses::total      1157610                       # number of WritebackDirty accesses(hits+misses)
system.l2.WritebackClean_hits::.writebacks         2378                       # number of WritebackClean hits
system.l2.WritebackClean_hits::total             2378                       # number of WritebackClean hits
system.l2.WritebackClean_accesses::.writebacks         2378                       # number of WritebackClean accesses(hits+misses)
system.l2.WritebackClean_accesses::total         2378                       # number of WritebackClean accesses(hits+misses)
system.l2.CleanEvict_mshr_misses::.writebacks           93                       # number of CleanEvict MSHR misses
system.l2.CleanEvict_mshr_misses::total            93                       # number of CleanEvict MSHR misses
system.l2.CleanEvict_mshr_miss_rate::.writebacks          inf                       # mshr miss rate for CleanEvict accesses
system.l2.CleanEvict_mshr_miss_rate::total          inf                       # mshr miss rate for CleanEvict accesses
system.l2.ReadExReq_hits::.cpu.data            285645                       # number of ReadExReq hits
system.l2.ReadExReq_hits::total                285645                       # number of ReadExReq hits
system.l2.ReadExReq_misses::.cpu.data          177356                       # number of ReadExReq misses
system.l2.ReadExReq_misses::total              177356                       # number of ReadExReq misses
system.l2.ReadExReq_miss_latency::.cpu.data  19351855000                       # number of ReadExReq miss cycles
system.l2.ReadExReq_miss_latency::total   19351855000                       # number of ReadExReq miss cycles
system.l2.ReadExReq_accesses::.cpu.data        463001                       # number of ReadExReq accesses(hits+misses)
system.l2.ReadExReq_accesses::total            463001                       # number of ReadExReq accesses(hits+misses)
system.l2.ReadExReq_miss_rate::.cpu.data     0.383057                       # miss rate for ReadExReq accesses
system.l2.ReadExReq_miss_rate::total         0.383057                       # miss rate for ReadExReq accesses
system.l2.ReadExReq_avg_miss_latency::.cpu.data 109113.055098                       # average ReadExReq miss latency
system.l2.ReadExReq_avg_miss_latency::total 109113.055098                       # average ReadExReq miss latency
system.l2.ReadExReq_mshr_misses::.cpu.data       177356                       # number of ReadExReq MSHR misses
system.l2.ReadExReq_mshr_misses::total         177356                       # number of ReadExReq MSHR misses
system.l2.ReadExReq_mshr_miss_latency::.cpu.data  15804735000                       # number of ReadExReq MSHR miss cycles
system.l2.ReadExReq_mshr_miss_latency::total  15804735000                       # number of ReadExReq MSHR miss cycles
system.l2.ReadExReq_mshr_miss_rate::.cpu.data     0.383057                       # mshr miss rate for ReadExReq accesses
system.l2.ReadExReq_mshr_miss_rate::total     0.383057                       # mshr miss rate for ReadExReq accesses
system.l2.ReadExReq_avg_mshr_miss_latency::.cpu.data 89113.055098                       # average ReadExReq mshr miss latency
system.l2.ReadExReq_avg_mshr_miss_latency::total 89113.055098                       # average ReadExReq mshr miss latency
system.l2.ReadCleanReq_hits::.cpu.inst           1933                       # number of ReadCleanReq hits
system.l2.ReadCleanReq_hits::total               1933                       # number of ReadCleanReq hits
system.l2.ReadCleanReq_misses::.cpu.inst          723                       # number of ReadCleanReq misses
system.l2.ReadCleanReq_misses::total              723                       # number of ReadCleanReq misses
system.l2.ReadCleanReq_miss_latency::.cpu.inst     71883000                       # number of ReadCleanReq miss cycles
system.l2.ReadCleanReq_miss_latency::total     71883000                       # number of ReadCleanReq miss cycles
system.l2.ReadCleanReq_accesses::.cpu.inst         2656                       # number of ReadCleanReq accesses(hits+misses)
system.l2.ReadCleanReq_accesses::total           2656                       # number of ReadCleanReq accesses(hits+misses)
system.l2.ReadCleanReq_miss_rate::.cpu.inst     0.272214                       # miss rate for ReadCleanReq accesses
system.l2.ReadCleanReq_miss_rate::total      0.272214                       # miss rate for ReadCleanReq accesses
system.l2.ReadCleanReq_avg_miss_latency::.cpu.inst 99423.236515                       # average ReadCleanReq miss latency
system.l2.ReadCleanReq_avg_miss_latency::total 99423.236515                       # average ReadCleanReq miss latency
system.l2.ReadCleanReq_mshr_misses::.cpu.inst          723                       # number of ReadCleanReq MSHR misses
system.l2.ReadCleanReq_mshr_misses::total          723                       # number of ReadCleanReq MSHR misses
system.l2.ReadCleanReq_mshr_miss_latency::.cpu.inst     57423000                       # number of ReadCleanReq MSHR miss cycles
system.l2.ReadCleanReq_mshr_miss_latency::total     57423000                       # number of ReadCleanReq MSHR miss cycles
system.l2.ReadCleanReq_mshr_miss_rate::.cpu.inst     0.272214                       # mshr miss rate for ReadCleanReq accesses
system.l2.ReadCleanReq_mshr_miss_rate::total     0.272214                       # mshr miss rate for ReadCleanReq accesses
system.l2.ReadCleanReq_avg_mshr_miss_latency::.cpu.inst 79423.236515                       # average ReadCleanReq mshr miss latency
system.l2.ReadCleanReq_avg_mshr_miss_latency::total 79423.236515                       # average ReadCleanReq mshr miss latency
system.l2.ReadSharedReq_hits::.cpu.data        725114                       # number of ReadSharedReq hits
system.l2.ReadSharedReq_hits::total            725114                       # number of ReadSharedReq hits
system.l2.ReadSharedReq_misses::.cpu.data       109538                       # number of ReadSharedReq misses
system.l2.ReadSharedReq_misses::total          109538                       # number of ReadSharedReq misses
system.l2.ReadSharedReq_miss_latency::.cpu.data  11293175000                       # number of ReadSharedReq miss cycles
system.l2.ReadSharedReq_miss_latency::total  11293175000                       # number of ReadSharedReq miss cycles
system.l2.ReadSharedReq_accesses::.cpu.data       834652                       # number of ReadSharedReq accesses(hits+misses)
system.l2.ReadSharedReq_accesses::total        834652                       # number of ReadSharedReq accesses(hits+misses)
system.l2.ReadSharedReq_miss_rate::.cpu.data     0.131238                       # miss rate for ReadSharedReq accesses
system.l2.ReadSharedReq_miss_rate::total     0.131238                       # miss rate for ReadSharedReq accesses
system.l2.ReadSharedReq_avg_miss_latency::.cpu.data 103098.239880                       # average ReadSharedReq miss latency
system.l2.ReadSharedReq_avg_miss_latency::total 103098.239880                       # average ReadSharedReq miss latency
system.l2.ReadSharedReq_mshr_hits::.cpu.data            5                       # number of ReadSharedReq MSHR hits
system.l2.ReadSharedReq_mshr_hits::total            5                       # number of ReadSharedReq MSHR hits
system.l2.ReadSharedReq_mshr_misses::.cpu.data       109533                       # number of ReadSharedReq MSHR misses
system.l2.ReadSharedReq_mshr_misses::total       109533                       # number of ReadSharedReq MSHR misses
system.l2.ReadSharedReq_mshr_miss_latency::.cpu.data   9101892000                       # number of ReadSharedReq MSHR miss cycles
system.l2.ReadSharedReq_mshr_miss_latency::total   9101892000                       # number of ReadSharedReq MSHR miss cycles
system.l2.ReadSharedReq_mshr_miss_rate::.cpu.data     0.131232                       # mshr miss rate for ReadSharedReq accesses
system.l2.ReadSharedReq_mshr_miss_rate::total     0.131232                       # mshr miss rate for ReadSharedReq accesses
system.l2.ReadSharedReq_avg_mshr_miss_latency::.cpu.data 83097.258360                       # average ReadSharedReq mshr miss latency
system.l2.ReadSharedReq_avg_mshr_miss_latency::total 83097.258360                       # average ReadSharedReq mshr miss latency
system.l2.tags.pwrStateResidencyTicks::UNDEFINED 177378093000                       # Cumulative time (in ticks) in various power states
system.l2.tags.tagsinuse                  8091.960021                       # Cycle average of tags in use
system.l2.tags.total_refs                     2597259                       # Total number of references to valid blocks.
system.l2.tags.sampled_refs                    288689                       # Sample count of references to valid blocks.
system.l2.tags.avg_refs                      8.996737                       # Average number of references to valid blocks.
system.l2.tags.warmup_cycle                     87000                       # Cycle when the warmup percentage was hit.
system.l2.tags.occ_blocks::.writebacks      26.268871                       # Average occupied blocks per requestor
system.l2.tags.occ_blocks::.cpu.inst        34.498025                       # Average occupied blocks per requestor
system.l2.tags.occ_blocks::.cpu.data      8031.193124                       # Average occupied blocks per requestor
system.l2.tags.occ_percent::.writebacks      0.003207                       # Average percentage of cache occupancy
system.l2.tags.occ_percent::.cpu.inst        0.004211                       # Average percentage of cache occupancy
system.l2.tags.occ_percent::.cpu.data        0.980370                       # Average percentage of cache occupancy
system.l2.tags.occ_percent::total            0.987788                       # Average percentage of cache occupancy
system.l2.tags.occ_task_id_blocks::1024          8192                       # Occupied blocks per task id
system.l2.tags.age_task_id_blocks_1024::0           32                       # Occupied blocks per task id
system.l2.tags.age_task_id_blocks_1024::1          437                       # Occupied blocks per task id
system.l2.tags.age_task_id_blocks_1024::2         1902                       # Occupied blocks per task id
system.l2.tags.age_task_id_blocks_1024::3         5164                       # Occupied blocks per task id
system.l2.tags.age_task_id_blocks_1024::4          657                       # Occupied blocks per task id
system.l2.tags.occ_task_id_percent::1024            1                       # Percentage of cache occupancy per task id
system.l2.tags.tag_accesses                   5483403                       # Number of tag accesses
system.l2.tags.data_accesses                  5483403                       # Number of data accesses
system.cpu_voltage_domain.voltage                   1                       # Voltage in Volts
system.mem_ctrls.pwrStateResidencyTicks::UNDEFINED 177378093000                       # Cumulative time (in ticks) in various power states
system.mem_ctrls.bytes_read::.cpu.inst          46272                       # Number of bytes read from this memory
system.mem_ctrls.bytes_read::.cpu.data       18360896                       # Number of bytes read from this memory
system.mem_ctrls.bytes_read::total           18407168                       # Number of bytes read from this memory
system.mem_ctrls.bytes_inst_read::.cpu.inst        46272                       # Number of instructions bytes read from this memory
system.mem_ctrls.bytes_inst_read::total         46272                       # Number of instructions bytes read from this memory
system.mem_ctrls.bytes_written::.writebacks     12804544                       # Number of bytes written to this memory
system.mem_ctrls.bytes_written::total        12804544                       # Number of bytes written to this memory
system.mem_ctrls.num_reads::.cpu.inst             723                       # Number of read requests responded to by this memory
system.mem_ctrls.num_reads::.cpu.data          286889                       # Number of read requests responded to by this memory
system.mem_ctrls.num_reads::total              287612                       # Number of read requests responded to by this memory
system.mem_ctrls.num_writes::.writebacks       200071                       # Number of write requests responded to by this memory
system.mem_ctrls.num_writes::total             200071                       # Number of write requests responded to by this memory
system.mem_ctrls.bw_read::.cpu.inst            260866                       # Total read bandwidth from this memory (bytes/s)
system.mem_ctrls.bw_read::.cpu.data         103512760                       # Total read bandwidth from this memory (bytes/s)
system.mem_ctrls.bw_read::total             103773627                       # Total read bandwidth from this memory (bytes/s)
system.mem_ctrls.bw_inst_read::.cpu.inst       260866                       # Instruction read bandwidth from this memory (bytes/s)
system.mem_ctrls.bw_inst_read::total           260866                       # Instruction read bandwidth from this memory (bytes/s)
system.mem_ctrls.bw_write::.writebacks       72187855                       # Write bandwidth from this memory (bytes/s)
system.mem_ctrls.bw_write::total             72187855                       # Write bandwidth from this memory (bytes/s)
system.mem_ctrls.bw_total::.writebacks       72187855                       # Total bandwidth to/from this memory (bytes/s)
system.mem_ctrls.bw_total::.cpu.inst           260866                       # Total bandwidth to/from this memory (bytes/s)
system.mem_ctrls.bw_total::.cpu.data        103512760                       # Total bandwidth to/from this memory (bytes/s)
system.mem_ctrls.bw_total::total            175961481                       # Total bandwidth to/from this memory (bytes/s)
system.mem_ctrls.avgPriority_.writebacks::samples    200039.00                       # Average QoS priority value for accepted requests
system.mem_ctrls.avgPriority_.cpu.inst::samples       723.00                       # Average QoS priority value for accepted requests
system.mem_ctrls.avgPriority_.cpu.data::samples    285926.00                       # Average QoS priority value for accepted requests
system.mem_ctrls.priorityMinLatency      0.000000018750                       # per QoS priority minimum request to response latency (s)
system.mem_ctrls.priorityMaxLatency      0.006154202500                       # per QoS priority maximum request to response latency (s)
system.mem_ctrls.numReadWriteTurnArounds        11716                       # Number of turnarounds from READ to WRITE
system.mem_ctrls.numWriteReadTurnArounds        11716                       # Number of turnarounds from WRITE to READ
system.mem_ctrls.numStayReadState              806483                       # Number of times bus staying in READ state
system.mem_ctrls.numStayWriteState             188592                       # Number of times bus staying in WRITE state
system.mem_ctrls.readReqs                      287612                       # Number of read requests accepted
system.mem_ctrls.writeReqs                     200071                       # Number of write requests accepted
system.mem_ctrls.readBursts                    287612                       # Number of DRAM read bursts, including those serviced by the write queue
system.mem_ctrls.writeBursts                   200071                       # Number of DRAM write bursts, including those merged in the write queue
system.mem_ctrls.servicedByWrQ                    963                       # Number of DRAM read bursts serviced by the write queue
system.mem_ctrls.mergedWrBursts                    32                       # Number of DRAM write bursts merged with an existing one
system.mem_ctrls.neitherReadNorWriteReqs            0                       # Number of requests that are neither read nor write
system.mem_ctrls.perBankRdBursts::0             17715                       # Per bank write bursts
system.mem_ctrls.perBankRdBursts::1             18863                       # Per bank write bursts
system.mem_ctrls.perBankRdBursts::2             18483                       # Per bank write bursts
system.mem_ctrls.perBankRdBursts::3             19634                       # Per bank write bursts
system.mem_ctrls.perBankRdBursts::4             16954                       # Per bank write bursts
system.mem_ctrls.perBankRdBursts::5             17828                       # Per bank write bursts
system.mem_ctrls.perBankRdBursts::6             17799                       # Per bank write bursts
system.mem_ctrls.perBankRdBursts::7             18040                       # Per bank write bursts
system.mem_ctrls.perBankRdBursts::8             17321                       # Per bank write bursts
system.mem_ctrls.perBankRdBursts::9             16408                       # Per bank write bursts
system.mem_ctrls.perBankRdBursts::10            17041                       # Per bank write bursts
system.mem_ctrls.perBankRdBursts::11            18465                       # Per bank write bursts
system.mem_ctrls.perBankRdBursts::12            17521                       # Per bank write bursts
system.mem_ctrls.perBankRdBursts::13            18048                       # Per bank write bursts
system.mem_ctrls.perBankRdBursts::14            17945                       # Per bank write bursts
system.mem_ctrls.perBankRdBursts::15            18584                       # Per bank write bursts
system.mem_ctrls.perBankWrBursts::0             12081                       # Per bank write bursts
system.mem_ctrls.perBankWrBursts::1             13274                       # Per bank write bursts
system.mem_ctrls.perBankWrBursts::2             13154                       # Per bank write bursts
system.mem_ctrls.perBankWrBursts::3             14447                       # Per bank write bursts
system.mem_ctrls.perBankWrBursts::4             11647                       # Per bank write bursts
system.mem_ctrls.perBankWrBursts::5             12391                       # Per bank write bursts
system.mem_ctrls.perBankWrBursts::6             12306                       # Per bank write bursts
system.mem_ctrls.perBankWrBursts::7             12647                       # Per bank write bursts
system.mem_ctrls.perBankWrBursts::8             12008                       # Per bank write bursts
system.mem_ctrls.perBankWrBursts::9             11197                       # Per bank write bursts
system.mem_ctrls.perBankWrBursts::10            11890                       # Per bank write bursts
system.mem_ctrls.perBankWrBursts::11            12798                       # Per bank write bursts
system.mem_ctrls.perBankWrBursts::12            11966                       # Per bank write bursts
system.mem_ctrls.perBankWrBursts::13            12575                       # Per bank write bursts
system.mem_ctrls.perBankWrBursts::14            12396                       # Per bank write bursts
system.mem_ctrls.perBankWrBursts::15            13231                       # Per bank write bursts
system.mem_ctrls.avgRdQLen                       1.05                       # Average read queue length when enqueuing
system.mem_ctrls.avgWrQLen                      24.56                       # Average write queue length when enqueuing
system.mem_ctrls.totQLat                   4788276250                       # Total ticks spent queuing
system.mem_ctrls.totBusLat                 1433245000                       # Total ticks spent in databus transfers
system.mem_ctrls.totMemAccLat             10162945000                       # Total ticks spent from burst creation until serviced by the DRAM
system.mem_ctrls.avgQLat                     16704.32                       # Average queueing delay per DRAM burst
system.mem_ctrls.avgBusLat                    5000.00                       # Average bus latency per DRAM burst
system.mem_ctrls.avgMemAccLat                35454.32                       # Average memory access latency per DRAM burst
system.mem_ctrls.numRdRetry                         0                       # Number of times read queue was full causing retry
system.mem_ctrls.numWrRetry                         0                       # Number of times write queue was full causing retry
system.mem_ctrls.readRowHits                   144594                       # Number of row buffer hits during reads
system.mem_ctrls.writeRowHits                  101977                       # Number of row buffer hits during writes
system.mem_ctrls.readRowHitRate                 50.44                       # Row buffer hit rate for reads
system.mem_ctrls.writeRowHitRate                50.98                       # Row buffer hit rate for writes
system.mem_ctrls.readPktSize::0                     0                       # Read request sizes (log2)
system.mem_ctrls.readPktSize::1                     0                       # Read request sizes (log2)
system.mem_ctrls.readPktSize::2                     0                       # Read request sizes (log2)
system.mem_ctrls.readPktSize::3                     0                       # Read request sizes (log2)
system.mem_ctrls.readPktSize::4                     0                       # Read request sizes (log2)
system.mem_ctrls.readPktSize::5                     0                       # Read request sizes (log2)
system.mem_ctrls.readPktSize::6                287612                       # Read request sizes (log2)
system.mem_ctrls.writePktSize::0                    0                       # Write request sizes (log2)
system.mem_ctrls.writePktSize::1                    0                       # Write request sizes (log2)
system.mem_ctrls.writePktSize::2                    0                       # Write request sizes (log2)
system.mem_ctrls.writePktSize::3                    0                       # Write request sizes (log2)
system.mem_ctrls.writePktSize::4                    0                       # Write request sizes (log2)
system.mem_ctrls.writePktSize::5                    0                       # Write request sizes (log2)
system.mem_ctrls.writePktSize::6               200071                       # Write request sizes (log2)
system.mem_ctrls.rdQLenPdf::0                  235136                       # What read queue length does an incoming req see
system.mem_ctrls.rdQLenPdf::1                   51298                       # What read queue length does an incoming req see
system.mem_ctrls.rdQLenPdf::2                     132                       # What read queue length does an incoming req see
system.mem_ctrls.rdQLenPdf::3                      82                       # What read queue length does an incoming req see
system.mem_ctrls.rdQLenPdf::4                       1                       # What read queue length does an incoming req see
system.mem_ctrls.rdQLenPdf::5                       0                       # What read queue length does an incoming req see
system.mem_ctrls.rdQLenPdf::6                       0                       # What read queue length does an incoming req see
system.mem_ctrls.rdQLenPdf::7                       0                       # What read queue length does an incoming req see
system.mem_ctrls.rdQLenPdf::8                       0                       # What read queue length does an incoming req see
system.mem_ctrls.rdQLenPdf::9                       0                       # What read queue length does an incoming req see
system.mem_ctrls.rdQLenPdf::10                      0                       # What read queue length does an incoming req see
system.mem_ctrls.rdQLenPdf::11                      0                       # What read queue length does an incoming req see
system.mem_ctrls.rdQLenPdf::12                      0                       # What read queue length does an incoming req see
system.mem_ctrls.rdQLenPdf::13                      0                       # What read queue length does an incoming req see
system.mem_ctrls.rdQLenPdf::14                      0                       # What read queue length does an incoming req see
system.mem_ctrls.rdQLenPdf::15                      0                       # What read queue length does an incoming req see
system.mem_ctrls.rdQLenPdf::16                      0                       # What read queue length does an incoming req see
system.mem_ctrls.rdQLenPdf::17                      0                       # What read queue length does an incoming req see
system.mem_ctrls.rdQLenPdf::18                      0                       # What read queue length does an incoming req see
system.mem_ctrls.rdQLenPdf::19                      0                       # What read queue length does an incoming req see
system.mem_ctrls.rdQLenPdf::20                      0                       # What read queue length does an incoming req see
system.mem_ctrls.rdQLenPdf::21                      0                       # What read queue length does an incoming req see
system.mem_ctrls.rdQLenPdf::22                      0                       # What read queue length does an incoming req see
system.mem_ctrls.rdQLenPdf::23                      0                       # What read queue length does an incoming req see
system.mem_ctrls.rdQLenPdf::24                      0                       # What read queue length does an incoming req see
system.mem_ctrls.rdQLenPdf::25                      0                       # What read queue length does an incoming req see
system.mem_ctrls.rdQLenPdf::26                      0                       # What read queue length does an incoming req see
system.mem_ctrls.rdQLenPdf::27                      0                       # What read queue length does an incoming req see
system.mem_ctrls.rdQLenPdf::28                      0                       # What read queue length does an incoming req see
system.mem_ctrls.rdQLenPdf::29                      0                       # What read queue length does an incoming req see
system.mem_ctrls.rdQLenPdf::30                      0                       # What read queue length does an incoming req see
system.mem_ctrls.rdQLenPdf::31                      0                       # What read queue length does an incoming req see
system.mem_ctrls.wrQLenPdf::0                       1                       # What write queue length does an incoming req see
system.mem_ctrls.wrQLenPdf::1                       1                       # What write queue length does an incoming req see
system.mem_ctrls.wrQLenPdf::2                       1                       # What write queue length does an incoming req see
system.mem_ctrls.wrQLenPdf::3                       1                       # What write queue length does an incoming req see
system.mem_ctrls.wrQLenPdf::4                       1                       # What write queue length does an incoming req see
system.mem_ctrls.wrQLenPdf::5                       1                       # What write queue length does an incoming req see
system.mem_ctrls.wrQLenPdf::6                       1                       # What write queue length does an incoming req see
system.mem_ctrls.wrQLenPdf::7                       1                       # What write queue length does an incoming req see
system.mem_ctrls.wrQLenPdf::8                       1                       # What write queue length does an incoming req see
system.mem_ctrls.wrQLenPdf::9                       1                       # What write queue length does an incoming req see
system.mem_ctrls.wrQLenPdf::10                      1                       # What write queue length does an incoming req see
system.mem_ctrls.wrQLenPdf::11                      1                       # What write queue length does an incoming req see
system.mem_ctrls.wrQLenPdf::12                      1                       # What write queue length does an incoming req see
system.mem_ctrls.wrQLenPdf::13                      1                       # What write queue length does an incoming req see
system.mem_ctrls.wrQLenPdf::14                      1                       # What write queue length does an incoming req see
system.mem_ctrls.wrQLenPdf::15                   5812                       # What write queue length does an incoming req see
system.mem_ctrls.wrQLenPdf::16                   6078                       # What write queue length does an incoming req see
system.mem_ctrls.wrQLenPdf::17                  11459                       # What write queue length does an incoming req see
system.mem_ctrls.wrQLenPdf::18                  11811                       # What write queue length does an incoming req see
system.mem_ctrls.wrQLenPdf::19                  11783                       # What write queue length does an incoming req see
system.mem_ctrls.wrQLenPdf::20                  11777                       # What write queue length does an incoming req see
system.mem_ctrls.wrQLenPdf::21                  11855                       # What write queue length does an incoming req see
system.mem_ctrls.wrQLenPdf::22                  11810                       # What write queue length does an incoming req see
system.mem_ctrls.wrQLenPdf::23                  11806                       # What write queue length does an incoming req see
system.mem_ctrls.wrQLenPdf::24                  11808                       # What write queue length does an incoming req see
system.mem_ctrls.wrQLenPdf::25                  11766                       # What write queue length does an incoming req see
system.mem_ctrls.wrQLenPdf::26                  11781                       # What write queue length does an incoming req see
system.mem_ctrls.wrQLenPdf::27                  11757                       # What write queue length does an incoming req see
system.mem_ctrls.wrQLenPdf::28                  11764                       # What write queue length does an incoming req see
system.mem_ctrls.wrQLenPdf::29                  11762                       # What write queue length does an incoming req see
system.mem_ctrls.wrQLenPdf::30                  11724                       # What write queue length does an incoming req see
system.mem_ctrls.wrQLenPdf::31                  11749                       # What write queue length does an incoming req see
system.mem_ctrls.wrQLenPdf::32                  11716                       # What write queue length does an incoming req see
system.mem_ctrls.wrQLenPdf::33                      6                       # What write queue length does an incoming req see
system.mem_ctrls.wrQLenPdf::34                      0                       # What write queue length does an incoming req see
system.mem_ctrls.wrQLenPdf::35                      0                       # What write queue length does an incoming req see
system.mem_ctrls.wrQLenPdf::36                      0                       # What write queue length does an incoming req see
system.mem_ctrls.wrQLenPdf::37                      0                       # What write queue length does an incoming req see
system.mem_ctrls.wrQLenPdf::38                      0                       # What write queue length does an incoming req see
system.mem_ctrls.wrQLenPdf::39                      0                       # What write queue length does an incoming req see
system.mem_ctrls.wrQLenPdf::40                      0                       # What write queue length does an incoming req see
system.mem_ctrls.wrQLenPdf::41                      0                       # What write queue length does an incoming req see
system.mem_ctrls.wrQLenPdf::42                      0                       # What write queue length does an incoming req see
system.mem_ctrls.wrQLenPdf::43                      0                       # What write queue length does an incoming req see
system.mem_ctrls.wrQLenPdf::44                      0                       # What write queue length does an incoming req see
system.mem_ctrls.wrQLenPdf::45                      0                       # What write queue length does an incoming req see
system.mem_ctrls.wrQLenPdf::46                      0                       # What write queue length does an incoming req see
system.mem_ctrls.wrQLenPdf::47                      0                       # What write queue length does an incoming req see
system.mem_ctrls.wrQLenPdf::48                      0                       # What write queue length does an incoming req see
system.mem_ctrls.wrQLenPdf::49                      0                       # What write queue length does an incoming req see
system.mem_ctrls.wrQLenPdf::50                      0                       # What write queue length does an incoming req see
system.mem_ctrls.wrQLenPdf::51                      0                       # What write queue length does an incoming req see
system.mem_ctrls.wrQLenPdf::52                      0                       # What write queue length does an incoming req see
system.mem_ctrls.wrQLenPdf::53                      0                       # What write queue length does an incoming req see
system.mem_ctrls.wrQLenPdf::54                      0                       # What write queue length does an incoming req see
system.mem_ctrls.wrQLenPdf::55                      0                       # What write queue length does an incoming req see
system.mem_ctrls.wrQLenPdf::56                      0                       # What write queue length does an incoming req see
system.mem_ctrls.wrQLenPdf::57                      0                       # What write queue length does an incoming req see
system.mem_ctrls.wrQLenPdf::58                      0                       # What write queue length does an incoming req see
system.mem_ctrls.wrQLenPdf::59                      0                       # What write queue length does an incoming req see
system.mem_ctrls.wrQLenPdf::60                      0                       # What write queue length does an incoming req see
system.mem_ctrls.wrQLenPdf::61                      0                       # What write queue length does an incoming req see
system.mem_ctrls.wrQLenPdf::62                      0                       # What write queue length does an incoming req see
system.mem_ctrls.wrQLenPdf::63                      0                       # What write queue length does an incoming req see
system.mem_ctrls.bytesPerActivate::samples       240081                       # Bytes accessed per row activation
system.mem_ctrls.bytesPerActivate::mean    129.728483                       # Bytes accessed per row activation
system.mem_ctrls.bytesPerActivate::gmean    87.892414                       # Bytes accessed per row activation
system.mem_ctrls.bytesPerActivate::stdev   187.702244                       # Bytes accessed per row activation
system.mem_ctrls.bytesPerActivate::0-127       185411     77.23%     77.23% # Bytes accessed per row activation
system.mem_ctrls.bytesPerActivate::128-255        29438     12.26%     89.49% # Bytes accessed per row activation
system.mem_ctrls.bytesPerActivate::256-383         5981      2.49%     91.98% # Bytes accessed per row activation
system.mem_ctrls.bytesPerActivate::384-511         1651      0.69%     92.67% # Bytes accessed per row activation
system.mem_ctrls.bytesPerActivate::512-639         9240      3.85%     96.52% # Bytes accessed per row activation
system.mem_ctrls.bytesPerActivate::640-767          794      0.33%     96.85% # Bytes accessed per row activation
system.mem_ctrls.bytesPerActivate::768-895          565      0.24%     97.08% # Bytes accessed per row activation
system.mem_ctrls.bytesPerActivate::896-1023          541      0.23%     97.31% # Bytes accessed per row activation
system.mem_ctrls.bytesPerActivate::1024-1151         6460      2.69%    100.00% # Bytes accessed per row activation
system.mem_ctrls.bytesPerActivate::total       240081                       # Bytes accessed per row activation
system.mem_ctrls.rdPerTurnAround::samples        11716                       # Reads before turning the bus around for writes
system.mem_ctrls.rdPerTurnAround::mean      24.465090                       # Reads before turning the bus around for writes
system.mem_ctrls.rdPerTurnAround::gmean     22.073273                       # Reads before turning the bus around for writes
system.mem_ctrls.rdPerTurnAround::stdev     24.502411                       # Reads before turning the bus around for writes
system.mem_ctrls.rdPerTurnAround::0-63          11511     98.25%     98.25% # Reads before turning the bus around for writes
system.mem_ctrls.rdPerTurnAround::64-127          142      1.21%     99.46% # Reads before turning the bus around for writes
system.mem_ctrls.rdPerTurnAround::128-191           21      0.18%     99.64% # Reads before turning the bus around for writes
system.mem_ctrls.rdPerTurnAround::192-255            8      0.07%     99.71% # Reads before turning the bus around for writes
system.mem_ctrls.rdPerTurnAround::256-319           26      0.22%     99.93% # Reads before turning the bus around for writes
[...]
system.cpu.icache.tags.occ_blocks::.cpu.inst   214.713845                       # Average occupied blocks per requestor
system.cpu.icache.tags.occ_percent::.cpu.inst     0.838726                       # Average percentage of cache occupancy
system.cpu.icache.tags.occ_percent::total     0.838726                       # Average percentage of cache occupancy
system.cpu.icache.tags.occ_task_id_blocks::1024          253                       # Occupied blocks per task id
system.cpu.icache.tags.age_task_id_blocks_1024::4          253                       # Occupied blocks per task id
system.cpu.icache.tags.occ_task_id_percent::1024     0.988281                       # Percentage of cache occupancy per task id
system.cpu.icache.tags.tag_accesses          10202986                       # Number of tag accesses
system.cpu.icache.tags.data_accesses         10202986                       # Number of data accesses
system.cpu.dtb.walker.pwrStateResidencyTicks::UNDEFINED 177378093000                       # Cumulative time (in ticks) in various power states
system.cpu.dtb.stage2_mmu.stage2_tlb.walker.pwrStateResidencyTicks::UNDEFINED 177378093000                       # Cumulative time (in ticks) in various power states
system.cpu.dcache.pwrStateResidencyTicks::UNDEFINED 177378093000                       # Cumulative time (in ticks) in various power states
system.cpu.dcache.demand_hits::.cpu.data     50814114                       # number of demand (read+write) hits
system.cpu.dcache.demand_hits::total         50814114                       # number of demand (read+write) hits
system.cpu.dcache.overall_hits::.cpu.data     50814465                       # number of overall hits
system.cpu.dcache.overall_hits::total        50814465                       # number of overall hits
system.cpu.dcache.demand_misses::.cpu.data      1356511                       # number of demand (read+write) misses
system.cpu.dcache.demand_misses::total        1356511                       # number of demand (read+write) misses
system.cpu.dcache.overall_misses::.cpu.data      1364575                       # number of overall misses
system.cpu.dcache.overall_misses::total       1364575                       # number of overall misses
system.cpu.dcache.demand_miss_latency::.cpu.data  60653907996                       # number of demand (read+write) miss cycles
system.cpu.dcache.demand_miss_latency::total  60653907996                       # number of demand (read+write) miss cycles
system.cpu.dcache.overall_miss_latency::.cpu.data  60653907996                       # number of overall miss cycles
system.cpu.dcache.overall_miss_latency::total  60653907996                       # number of overall miss cycles
system.cpu.dcache.demand_accesses::.cpu.data     52170625                       # number of demand (read+write) accesses
system.cpu.dcache.demand_accesses::total     52170625                       # number of demand (read+write) accesses
system.cpu.dcache.overall_accesses::.cpu.data     52179040                       # number of overall (read+write) accesses
system.cpu.dcache.overall_accesses::total     52179040                       # number of overall (read+write) accesses
system.cpu.dcache.demand_miss_rate::.cpu.data     0.026001                       # miss rate for demand accesses
system.cpu.dcache.demand_miss_rate::total     0.026001                       # miss rate for demand accesses
system.cpu.dcache.overall_miss_rate::.cpu.data     0.026152                       # miss rate for overall accesses
system.cpu.dcache.overall_miss_rate::total     0.026152                       # miss rate for overall accesses
system.cpu.dcache.demand_avg_miss_latency::.cpu.data 44713.170771                       # average overall miss latency
system.cpu.dcache.demand_avg_miss_latency::total 44713.170771                       # average overall miss latency
system.cpu.dcache.overall_avg_miss_latency::.cpu.data 44448.936846                       # average overall miss latency
system.cpu.dcache.overall_avg_miss_latency::total 44448.936846                       # average overall miss latency
system.cpu.dcache.blocked_cycles::no_mshrs        66249                       # number of cycles access was blocked
system.cpu.dcache.blocked_cycles::no_targets            0                       # number of cycles access was blocked
system.cpu.dcache.blocked::no_mshrs              3250                       # number of cycles access was blocked
system.cpu.dcache.blocked::no_targets               0                       # number of cycles access was blocked
system.cpu.dcache.avg_blocked_cycles::no_mshrs    20.384308                       # average number of cycles each access was blocked
system.cpu.dcache.avg_blocked_cycles::no_targets          nan                       # average number of cycles each access was blocked
system.cpu.dcache.writebacks::.writebacks      1157610                       # number of writebacks
system.cpu.dcache.writebacks::total           1157610                       # number of writebacks
system.cpu.dcache.demand_mshr_hits::.cpu.data        66920                       # number of demand (read+write) MSHR hits
system.cpu.dcache.demand_mshr_hits::total        66920                       # number of demand (read+write) MSHR hits
system.cpu.dcache.overall_mshr_hits::.cpu.data        66920                       # number of overall MSHR hits
system.cpu.dcache.overall_mshr_hits::total        66920                       # number of overall MSHR hits
system.cpu.dcache.demand_mshr_misses::.cpu.data      1289591                       # number of demand (read+write) MSHR misses
system.cpu.dcache.demand_mshr_misses::total      1289591                       # number of demand (read+write) MSHR misses
system.cpu.dcache.overall_mshr_misses::.cpu.data      1297648                       # number of overall MSHR misses
system.cpu.dcache.overall_mshr_misses::total      1297648                       # number of overall MSHR misses
system.cpu.dcache.demand_mshr_miss_latency::.cpu.data  56046349997                       # number of demand (read+write) MSHR miss cycles
system.cpu.dcache.demand_mshr_miss_latency::total  56046349997                       # number of demand (read+write) MSHR miss cycles
system.cpu.dcache.overall_mshr_miss_latency::.cpu.data  56838392981                       # number of overall MSHR miss cycles
system.cpu.dcache.overall_mshr_miss_latency::total  56838392981                       # number of overall MSHR miss cycles
system.cpu.dcache.demand_mshr_miss_rate::.cpu.data     0.024719                       # mshr miss rate for demand accesses
system.cpu.dcache.demand_mshr_miss_rate::total     0.024719                       # mshr miss rate for demand accesses
system.cpu.dcache.overall_mshr_miss_rate::.cpu.data     0.024869                       # mshr miss rate for overall accesses
system.cpu.dcache.overall_mshr_miss_rate::total     0.024869                       # mshr miss rate for overall accesses
system.cpu.dcache.demand_avg_mshr_miss_latency::.cpu.data 43460.562300                       # average overall mshr miss latency
system.cpu.dcache.demand_avg_mshr_miss_latency::total 43460.562300                       # average overall mshr miss latency
system.cpu.dcache.overall_avg_mshr_miss_latency::.cpu.data 43801.087029                       # average overall mshr miss latency
system.cpu.dcache.overall_avg_mshr_miss_latency::total 43801.087029                       # average overall mshr miss latency
system.cpu.dcache.replacements                1297397                       # number of replacements
system.cpu.dcache.ReadReq_hits::.cpu.data     40359021                       # number of ReadReq hits
system.cpu.dcache.ReadReq_hits::total        40359021                       # number of ReadReq hits
system.cpu.dcache.ReadReq_misses::.cpu.data       833425                       # number of ReadReq misses
system.cpu.dcache.ReadReq_misses::total        833425                       # number of ReadReq misses
system.cpu.dcache.ReadReq_miss_latency::.cpu.data  30831085998                       # number of ReadReq miss cycles
system.cpu.dcache.ReadReq_miss_latency::total  30831085998                       # number of ReadReq miss cycles
system.cpu.dcache.ReadReq_accesses::.cpu.data     41192446                       # number of ReadReq accesses(hits+misses)
system.cpu.dcache.ReadReq_accesses::total     41192446                       # number of ReadReq accesses(hits+misses)
system.cpu.dcache.ReadReq_miss_rate::.cpu.data     0.020232                       # miss rate for ReadReq accesses
system.cpu.dcache.ReadReq_miss_rate::total     0.020232                       # miss rate for ReadReq accesses
system.cpu.dcache.ReadReq_avg_miss_latency::.cpu.data 36993.233942                       # average ReadReq miss latency
system.cpu.dcache.ReadReq_avg_miss_latency::total 36993.233942                       # average ReadReq miss latency
system.cpu.dcache.ReadReq_mshr_hits::.cpu.data         6175                       # number of ReadReq MSHR hits
system.cpu.dcache.ReadReq_mshr_hits::total         6175                       # number of ReadReq MSHR hits
system.cpu.dcache.ReadReq_mshr_misses::.cpu.data       827250                       # number of ReadReq MSHR misses
system.cpu.dcache.ReadReq_mshr_misses::total       827250                       # number of ReadReq MSHR misses
system.cpu.dcache.ReadReq_mshr_miss_latency::.cpu.data  28909256998                       # number of ReadReq MSHR miss cycles
system.cpu.dcache.ReadReq_mshr_miss_latency::total  28909256998                       # number of ReadReq MSHR miss cycles
system.cpu.dcache.ReadReq_mshr_miss_rate::.cpu.data     0.020083                       # mshr miss rate for ReadReq accesses
system.cpu.dcache.ReadReq_mshr_miss_rate::total     0.020083                       # mshr miss rate for ReadReq accesses
system.cpu.dcache.ReadReq_avg_mshr_miss_latency::.cpu.data 34946.215773                       # average ReadReq mshr miss latency
system.cpu.dcache.ReadReq_avg_mshr_miss_latency::total 34946.215773                       # average ReadReq mshr miss latency
system.cpu.dcache.WriteReq_hits::.cpu.data     10455093                       # number of WriteReq hits
system.cpu.dcache.WriteReq_hits::total       10455093                       # number of WriteReq hits
system.cpu.dcache.WriteReq_misses::.cpu.data       523086                       # number of WriteReq misses
system.cpu.dcache.WriteReq_misses::total       523086                       # number of WriteReq misses
system.cpu.dcache.WriteReq_miss_latency::.cpu.data  29822821998                       # number of WriteReq miss cycles
system.cpu.dcache.WriteReq_miss_latency::total  29822821998                       # number of WriteReq miss cycles
system.cpu.dcache.WriteReq_accesses::.cpu.data     10978179                       # number of WriteReq accesses(hits+misses)
system.cpu.dcache.WriteReq_accesses::total     10978179                       # number of WriteReq accesses(hits+misses)
system.cpu.dcache.WriteReq_miss_rate::.cpu.data     0.047648                       # miss rate for WriteReq accesses
system.cpu.dcache.WriteReq_miss_rate::total     0.047648                       # miss rate for WriteReq accesses
system.cpu.dcache.WriteReq_avg_miss_latency::.cpu.data 57013.229178                       # average WriteReq miss latency
system.cpu.dcache.WriteReq_avg_miss_latency::total 57013.229178                       # average WriteReq miss latency
system.cpu.dcache.WriteReq_mshr_hits::.cpu.data        60745                       # number of WriteReq MSHR hits
system.cpu.dcache.WriteReq_mshr_hits::total        60745                       # number of WriteReq MSHR hits
system.cpu.dcache.WriteReq_mshr_misses::.cpu.data       462341                       # number of WriteReq MSHR misses
system.cpu.dcache.WriteReq_mshr_misses::total       462341                       # number of WriteReq MSHR misses
system.cpu.dcache.WriteReq_mshr_miss_latency::.cpu.data  27137092999                       # number of WriteReq MSHR miss cycles
system.cpu.dcache.WriteReq_mshr_miss_latency::total  27137092999                       # number of WriteReq MSHR miss cycles
system.cpu.dcache.WriteReq_mshr_miss_rate::.cpu.data     0.042115                       # mshr miss rate for WriteReq accesses
system.cpu.dcache.WriteReq_mshr_miss_rate::total     0.042115                       # mshr miss rate for WriteReq accesses
system.cpu.dcache.WriteReq_avg_mshr_miss_latency::.cpu.data 58694.974054                       # average WriteReq mshr miss latency
system.cpu.dcache.WriteReq_avg_mshr_miss_latency::total 58694.974054                       # average WriteReq mshr miss latency
system.cpu.dcache.SoftPFReq_hits::.cpu.data          351                       # number of SoftPFReq hits
system.cpu.dcache.SoftPFReq_hits::total           351                       # number of SoftPFReq hits
system.cpu.dcache.SoftPFReq_misses::.cpu.data         8064                       # number of SoftPFReq misses
system.cpu.dcache.SoftPFReq_misses::total         8064                       # number of SoftPFReq misses
system.cpu.dcache.SoftPFReq_accesses::.cpu.data         8415                       # number of SoftPFReq accesses(hits+misses)
system.cpu.dcache.SoftPFReq_accesses::total         8415                       # number of SoftPFReq accesses(hits+misses)
system.cpu.dcache.SoftPFReq_miss_rate::.cpu.data     0.958289                       # miss rate for SoftPFReq accesses
system.cpu.dcache.SoftPFReq_miss_rate::total     0.958289                       # miss rate for SoftPFReq accesses
system.cpu.dcache.SoftPFReq_mshr_misses::.cpu.data         8057                       # number of SoftPFReq MSHR misses
system.cpu.dcache.SoftPFReq_mshr_misses::total         8057                       # number of SoftPFReq MSHR misses
system.cpu.dcache.SoftPFReq_mshr_miss_latency::.cpu.data    792042984                       # number of SoftPFReq MSHR miss cycles
system.cpu.dcache.SoftPFReq_mshr_miss_latency::total    792042984                       # number of SoftPFReq MSHR miss cycles
system.cpu.dcache.SoftPFReq_mshr_miss_rate::.cpu.data     0.957457                       # mshr miss rate for SoftPFReq accesses
system.cpu.dcache.SoftPFReq_mshr_miss_rate::total     0.957457                       # mshr miss rate for SoftPFReq accesses
system.cpu.dcache.SoftPFReq_avg_mshr_miss_latency::.cpu.data 98304.950230                       # average SoftPFReq mshr miss latency
system.cpu.dcache.SoftPFReq_avg_mshr_miss_latency::total 98304.950230                       # average SoftPFReq mshr miss latency
system.cpu.dcache.LoadLockedReq_hits::.cpu.data           33                       # number of LoadLockedReq hits
system.cpu.dcache.LoadLockedReq_hits::total           33                       # number of LoadLockedReq hits
system.cpu.dcache.LoadLockedReq_misses::.cpu.data            5                       # number of LoadLockedReq misses
system.cpu.dcache.LoadLockedReq_misses::total            5                       # number of LoadLockedReq misses
system.cpu.dcache.LoadLockedReq_miss_latency::.cpu.data       351000                       # number of LoadLockedReq miss cycles
system.cpu.dcache.LoadLockedReq_miss_latency::total       351000                       # number of LoadLockedReq miss cycles
system.cpu.dcache.LoadLockedReq_accesses::.cpu.data           38                       # number of LoadLockedReq accesses(hits+misses)
system.cpu.dcache.LoadLockedReq_accesses::total           38                       # number of LoadLockedReq accesses(hits+misses)
system.cpu.dcache.LoadLockedReq_miss_rate::.cpu.data     0.131579                       # miss rate for LoadLockedReq accesses
system.cpu.dcache.LoadLockedReq_miss_rate::total     0.131579                       # miss rate for LoadLockedReq accesses
system.cpu.dcache.LoadLockedReq_avg_miss_latency::.cpu.data        70200                       # average LoadLockedReq miss latency
system.cpu.dcache.LoadLockedReq_avg_miss_latency::total        70200                       # average LoadLockedReq miss latency
system.cpu.dcache.LoadLockedReq_mshr_misses::.cpu.data            5                       # number of LoadLockedReq MSHR misses
system.cpu.dcache.LoadLockedReq_mshr_misses::total            5                       # number of LoadLockedReq MSHR misses
system.cpu.dcache.LoadLockedReq_mshr_miss_latency::.cpu.data       341000                       # number of LoadLockedReq MSHR miss cycles
system.cpu.dcache.LoadLockedReq_mshr_miss_latency::total       341000                       # number of LoadLockedReq MSHR miss cycles
system.cpu.dcache.LoadLockedReq_mshr_miss_rate::.cpu.data     0.131579                       # mshr miss rate for LoadLockedReq accesses
system.cpu.dcache.LoadLockedReq_mshr_miss_rate::total     0.131579                       # mshr miss rate for LoadLockedReq accesses
system.cpu.dcache.LoadLockedReq_avg_mshr_miss_latency::.cpu.data        68200                       # average LoadLockedReq mshr miss latency
system.cpu.dcache.LoadLockedReq_avg_mshr_miss_latency::total        68200                       # average LoadLockedReq mshr miss latency
system.cpu.dcache.StoreCondReq_hits::.cpu.data           38                       # number of StoreCondReq hits
system.cpu.dcache.StoreCondReq_hits::total           38                       # number of StoreCondReq hits
system.cpu.dcache.StoreCondReq_accesses::.cpu.data           38                       # number of StoreCondReq accesses(hits+misses)
system.cpu.dcache.StoreCondReq_accesses::total           38                       # number of StoreCondReq accesses(hits+misses)
system.cpu.dcache.tags.pwrStateResidencyTicks::UNDEFINED 177378093000                       # Cumulative time (in ticks) in various power states
system.cpu.dcache.tags.tagsinuse           254.487608                       # Cycle average of tags in use
system.cpu.dcache.tags.total_refs            52112189                       # Total number of references to valid blocks.
system.cpu.dcache.tags.sampled_refs           1297653                       # Sample count of references to valid blocks.
system.cpu.dcache.tags.avg_refs             40.158801                       # Average number of references to valid blocks.
system.cpu.dcache.tags.warmup_cycle            223000                       # Cycle when the warmup percentage was hit.
system.cpu.dcache.tags.occ_blocks::.cpu.data   254.487608                       # Average occupied blocks per requestor
system.cpu.dcache.tags.occ_percent::.cpu.data     0.994092                       # Average percentage of cache occupancy
system.cpu.dcache.tags.occ_percent::total     0.994092                       # Average percentage of cache occupancy
system.cpu.dcache.tags.occ_task_id_blocks::1024          256                       # Occupied blocks per task id
system.cpu.dcache.tags.age_task_id_blocks_1024::0           59                       # Occupied blocks per task id
system.cpu.dcache.tags.age_task_id_blocks_1024::1          168                       # Occupied blocks per task id
system.cpu.dcache.tags.age_task_id_blocks_1024::2           29                       # Occupied blocks per task id
system.cpu.dcache.tags.occ_task_id_percent::1024            1                       # Percentage of cache occupancy per task id
system.cpu.dcache.tags.tag_accesses          53476769                       # Number of tag accesses
system.cpu.dcache.tags.data_accesses         53476769                       # Number of data accesses
system.cpu.itb.walker.pwrStateResidencyTicks::UNDEFINED 177378093000                       # Cumulative time (in ticks) in various power states
system.cpu.itb.stage2_mmu.stage2_tlb.walker.pwrStateResidencyTicks::UNDEFINED 177378093000                       # Cumulative time (in ticks) in various power states

---------- End Simulation Statistics   ----------
