
---------- Begin Simulation Statistics ----------
final_tick                               110361718000                       # Number of ticks from beginning of simulation (restored from checkpoints and never reset)
host_inst_rate                                 358439                       # Simulator instruction rate (inst/s)
host_mem_usage                                 708616                       # Number of bytes of host memory used
host_op_rate                                   391198                       # Simulator op (including micro ops) rate (op/s)
host_seconds                                   278.99                       # Real time elapsed on the host
host_tick_rate                              395579458                       # Simulator tick rate (ticks/s)
sim_freq                                 1000000000000                       # Frequency of simulated ticks
sim_insts                                   100000000                       # Number of instructions simulated
sim_ops                                     109139424                       # Number of ops (including micro ops) simulated
sim_seconds                                  0.110362                       # Number of seconds simulated
sim_ticks                                110361718000                       # Number of ticks simulated
system.cpu.branchPred.BTBCorrect                    0                       # Number of correct BTB predictions (this stat may not work properly.
system.cpu.branchPred.BTBHitPct             92.962613                       # BTB Hit Percentage
system.cpu.branchPred.BTBHits                 8062957                       # Number of BTB hits
system.cpu.branchPred.BTBLookups              8673333                       # Number of BTB lookups
system.cpu.branchPred.RASInCorrect                482                       # Number of incorrect RAS predictions.
system.cpu.branchPred.condIncorrect             88894                       # Number of conditional branches incorrect
system.cpu.branchPred.condPredicted          15819129                       # Number of conditional branches predicted
system.cpu.branchPred.indirectHits             287880                       # Number of indirect target hits.
system.cpu.branchPred.indirectLookups          551181                       # Number of indirect predictor lookups.
system.cpu.branchPred.indirectMisses           263301                       # Number of indirect misses.
system.cpu.branchPred.lookups                19659526                       # Number of BP lookups
system.cpu.branchPred.usedRAS                 1050594                       # Number of times the RAS was used to get a target.
system.cpu.branchPredindirectMispredicted          987                       # Number of mispredicted indirect branches.
system.cpu.committedInsts                   100000000                       # Number of instructions committed
system.cpu.committedOps                     109139424                       # Number of ops (including micro ops) committed
system.cpu.cpi                               1.103617                       # CPI: cycles per instruction
system.cpu.discardedOps                        430923                       # Number of ops (including micro ops) which were discarded before commit
system.cpu.dtb.accesses                             0                       # DTB accesses
system.cpu.dtb.align_faults                         0                       # Number of TLB faults due to alignment restrictions
system.cpu.dtb.domain_faults                        0                       # Number of TLB faults due to domain restrictions
system.cpu.dtb.flush_entries                        0                       # Number of entries that have been flushed from TLB
system.cpu.dtb.flush_tlb                            0                       # Number of times complete TLB was flushed
system.cpu.dtb.flush_tlb_asid                       0                       # Number of times TLB was flushed by ASID
system.cpu.dtb.flush_tlb_mva                        0                       # Number of times TLB was flushed by MVA
system.cpu.dtb.flush_tlb_mva_asid                   0                       # Number of times TLB was flushed by MVA & ASID
system.cpu.dtb.hits                                 0                       # DTB hits
system.cpu.dtb.inst_accesses                        0                       # ITB inst accesses
system.cpu.dtb.inst_hits                            0                       # ITB inst hits
system.cpu.dtb.inst_misses                          0                       # ITB inst misses
system.cpu.dtb.misses                               0                       # DTB misses
system.cpu.dtb.perms_faults                         0                       # Number of TLB faults due to permissions restrictions
system.cpu.dtb.prefetch_faults                      0                       # Number of TLB faults due to prefetch
system.cpu.dtb.read_accesses                        0                       # DTB read accesses
system.cpu.dtb.read_hits                            0                       # DTB read hits
system.cpu.dtb.read_misses                          0                       # DTB read misses
system.cpu.dtb.stage2_mmu.stage2_tlb.accesses            0                       # DTB accesses
system.cpu.dtb.stage2_mmu.stage2_tlb.align_faults            0                       # Number of TLB faults due to alignment restrictions
system.cpu.dtb.stage2_mmu.stage2_tlb.domain_faults            0                       # Number of TLB faults due to domain restrictions
system.cpu.dtb.stage2_mmu.stage2_tlb.flush_entries            0                       # Number of entries that have been flushed from TLB
system.cpu.dtb.stage2_mmu.stage2_tlb.flush_tlb            0                       # Number of times complete TLB was flushed
system.cpu.dtb.stage2_mmu.stage2_tlb.flush_tlb_asid            0                       # Number of times TLB was flushed by ASID
system.cpu.dtb.stage2_mmu.stage2_tlb.flush_tlb_mva            0                       # Number of times TLB was flushed by MVA
system.cpu.dtb.stage2_mmu.stage2_tlb.flush_tlb_mva_asid            0                       # Number of times TLB was flushed by MVA & ASID
system.cpu.dtb.stage2_mmu.stage2_tlb.hits            0                       # DTB hits
system.cpu.dtb.stage2_mmu.stage2_tlb.inst_accesses            0                       # ITB inst accesses
system.cpu.dtb.stage2_mmu.stage2_tlb.inst_hits            0                       # ITB inst hits
system.cpu.dtb.stage2_mmu.stage2_tlb.inst_misses            0                       # ITB inst misses
system.cpu.dtb.stage2_mmu.stage2_tlb.misses            0                       # DTB misses
system.cpu.dtb.stage2_mmu.stage2_tlb.perms_faults            0                       # Number of TLB faults due to permissions restrictions
system.cpu.dtb.stage2_mmu.stage2_tlb.prefetch_faults            0                       # Number of TLB faults due to prefetch
system.cpu.dtb.stage2_mmu.stage2_tlb.read_accesses            0                       # DTB read accesses
system.cpu.dtb.stage2_mmu.stage2_tlb.read_hits            0                       # DTB read hits
system.cpu.dtb.stage2_mmu.stage2_tlb.read_misses            0                       # DTB read misses
system.cpu.dtb.stage2_mmu.stage2_tlb.walker.walkRequestOrigin_Requested::Data            0                       # Table walker requests started/completed, data/inst
system.cpu.dtb.stage2_mmu.stage2_tlb.walker.walkRequestOrigin_Requested::Inst            0                       # Table walker requests started/completed, data/inst
system.cpu.dtb.stage2_mmu.stage2_tlb.walker.walkRequestOrigin_Requested::total            0                       # Table walker requests started/completed, data/inst
system.cpu.dtb.stage2_mmu.stage2_tlb.walker.walkRequestOrigin_Completed::Data            0                       # Table walker requests started/completed, data/inst
system.cpu.dtb.stage2_mmu.stage2_tlb.walker.walkRequestOrigin_Completed::Inst            0                       # Table walker requests started/completed, data/inst
system.cpu.dtb.stage2_mmu.stage2_tlb.walker.walkRequestOrigin_Completed::total            0                       # Table walker requests started/completed, data/inst
system.cpu.dtb.stage2_mmu.stage2_tlb.walker.walkRequestOrigin::total            0                       # Table walker requests started/completed, data/inst
system.cpu.dtb.stage2_mmu.stage2_tlb.walker.walks            0                       # Table walker walks requested
system.cpu.dtb.stage2_mmu.stage2_tlb.write_accesses            0                       # DTB write accesses
system.cpu.dtb.stage2_mmu.stage2_tlb.write_hits            0                       # DTB write hits
system.cpu.dtb.stage2_mmu.stage2_tlb.write_misses            0                       # DTB write misses
system.cpu.dtb.walker.walkRequestOrigin_Requested::Data            0                       # Table walker requests started/completed, data/inst
system.cpu.dtb.walker.walkRequestOrigin_Requested::Inst            0                       # Table walker requests started/completed, data/inst
system.cpu.dtb.walker.walkRequestOrigin_Requested::total            0                       # Table walker requests started/completed, data/inst
system.cpu.dtb.walker.walkRequestOrigin_Completed::Data            0                       # Table walker requests started/completed, data/inst
system.cpu.dtb.walker.walkRequestOrigin_Completed::Inst            0                       # Table walker requests started/completed, data/inst
system.cpu.dtb.walker.walkRequestOrigin_Completed::total            0                       # Table walker requests started/completed, data/inst
system.cpu.dtb.walker.walkRequestOrigin::total            0                       # Table walker requests started/completed, data/inst
system.cpu.dtb.walker.walks                         0                       # Table walker walks requested
system.cpu.dtb.write_accesses                       0                       # DTB write accesses
system.cpu.dtb.write_hits                           0                       # DTB write hits
system.cpu.dtb.write_misses                         0                       # DTB write misses
system.cpu.fetch2.amo_instructions                  0                       # Number of memory atomic instructions successfully decoded
system.cpu.fetch2.fp_instructions                   0                       # Number of floating point instructions successfully decoded
system.cpu.fetch2.int_instructions           49083132                       # Number of integer instructions successfully decoded
system.cpu.fetch2.load_instructions          17523773                       # Number of memory load instructions successfully decoded
system.cpu.fetch2.store_instructions         10083644                       # Number of memory store instructions successfully decoded
system.cpu.fetch2.vec_instructions                  0                       # Number of SIMD instructions successfully decoded
system.cpu.idleCycles                         3860602                       # Total number of cycles that the object has spent stopped
system.cpu.ipc                               0.906111                       # IPC: instructions per cycle
system.cpu.itb.accesses                             0                       # DTB accesses
system.cpu.itb.align_faults                         0                       # Number of TLB faults due to alignment restrictions
system.cpu.itb.domain_faults                        0                       # Number of TLB faults due to domain restrictions
system.cpu.itb.flush_entries                        0                       # Number of entries that have been flushed from TLB
system.cpu.itb.flush_tlb                            0                       # Number of times complete TLB was flushed
system.cpu.itb.flush_tlb_asid                       0                       # Number of times TLB was flushed by ASID
system.cpu.itb.flush_tlb_mva                        0                       # Number of times TLB was flushed by MVA
system.cpu.itb.flush_tlb_mva_asid                   0                       # Number of times TLB was flushed by MVA & ASID
system.cpu.itb.hits                                 0                       # DTB hits
system.cpu.itb.inst_accesses                        0                       # ITB inst accesses
system.cpu.itb.inst_hits                            0                       # ITB inst hits
system.cpu.itb.inst_misses                          0                       # ITB inst misses
system.cpu.itb.misses                               0                       # DTB misses
system.cpu.itb.perms_faults                         0                       # Number of TLB faults due to permissions restrictions
system.cpu.itb.prefetch_faults                      0                       # Number of TLB faults due to prefetch
system.cpu.itb.read_accesses                        0                       # DTB read accesses
system.cpu.itb.read_hits                            0                       # DTB read hits
system.cpu.itb.read_misses                          0                       # DTB read misses
system.cpu.itb.stage2_mmu.stage2_tlb.accesses            0                       # DTB accesses
system.cpu.itb.stage2_mmu.stage2_tlb.align_faults            0                       # Number of TLB faults due to alignment restrictions
system.cpu.itb.stage2_mmu.stage2_tlb.domain_faults            0                       # Number of TLB faults due to domain restrictions
system.cpu.itb.stage2_mmu.stage2_tlb.flush_entries            0                       # Number of entries that have been flushed from TLB
system.cpu.itb.stage2_mmu.stage2_tlb.flush_tlb            0                       # Number of times complete TLB was flushed
system.cpu.itb.stage2_mmu.stage2_tlb.flush_tlb_asid            0                       # Number of times TLB was flushed by ASID
system.cpu.itb.stage2_mmu.stage2_tlb.flush_tlb_mva            0                       # Number of times TLB was flushed by MVA
system.cpu.itb.stage2_mmu.stage2_tlb.flush_tlb_mva_asid            0                       # Number of times TLB was flushed by MVA & ASID
system.cpu.itb.stage2_mmu.stage2_tlb.hits            0                       # DTB hits
system.cpu.itb.stage2_mmu.stage2_tlb.inst_accesses            0                       # ITB inst accesses
system.cpu.itb.stage2_mmu.stage2_tlb.inst_hits            0                       # ITB inst hits
system.cpu.itb.stage2_mmu.stage2_tlb.inst_misses            0                       # ITB inst misses
system.cpu.itb.stage2_mmu.stage2_tlb.misses            0                       # DTB misses
system.cpu.itb.stage2_mmu.stage2_tlb.perms_faults            0                       # Number of TLB faults due to permissions restrictions
system.cpu.itb.stage2_mmu.stage2_tlb.prefetch_faults            0                       # Number of TLB faults due to prefetch
system.cpu.itb.stage2_mmu.stage2_tlb.read_accesses            0                       # DTB read accesses
system.cpu.itb.stage2_mmu.stage2_tlb.read_hits            0                       # DTB read hits
system.cpu.itb.stage2_mmu.stage2_tlb.read_misses            0                       # DTB read misses
system.cpu.itb.stage2_mmu.stage2_tlb.walker.walkRequestOrigin_Requested::Data            0                       # Table walker requests started/completed, data/inst
system.cpu.itb.stage2_mmu.stage2_tlb.walker.walkRequestOrigin_Requested::Inst            0                       # Table walker requests started/completed, data/inst
system.cpu.itb.stage2_mmu.stage2_tlb.walker.walkRequestOrigin_Requested::total            0                       # Table walker requests started/completed, data/inst
system.cpu.itb.stage2_mmu.stage2_tlb.walker.walkRequestOrigin_Completed::Data            0                       # Table walker requests started/completed, data/inst
system.cpu.itb.stage2_mmu.stage2_tlb.walker.walkRequestOrigin_Completed::Inst            0                       # Table walker requests started/completed, data/inst
system.cpu.itb.stage2_mmu.stage2_tlb.walker.walkRequestOrigin_Completed::total            0                       # Table walker requests started/completed, data/inst
system.cpu.itb.stage2_mmu.stage2_tlb.walker.walkRequestOrigin::total            0                       # Table walker requests started/completed, data/inst
system.cpu.itb.stage2_mmu.stage2_tlb.walker.walks            0                       # Table walker walks requested
system.cpu.itb.stage2_mmu.stage2_tlb.write_accesses            0                       # DTB write accesses
system.cpu.itb.stage2_mmu.stage2_tlb.write_hits            0                       # DTB write hits
system.cpu.itb.stage2_mmu.stage2_tlb.write_misses            0                       # DTB write misses
system.cpu.itb.walker.walkRequestOrigin_Requested::Data            0                       # Table walker requests started/completed, data/inst
system.cpu.itb.walker.walkRequestOrigin_Requested::Inst            0                       # Table walker requests started/completed, data/inst
system.cpu.itb.walker.walkRequestOrigin_Requested::total            0                       # Table walker requests started/completed, data/inst
system.cpu.itb.walker.walkRequestOrigin_Completed::Data            0                       # Table walker requests started/completed, data/inst
system.cpu.itb.walker.walkRequestOrigin_Completed::Inst            0                       # Table walker requests started/completed, data/inst
system.cpu.itb.walker.walkRequestOrigin_Completed::total            0                       # Table walker requests started/completed, data/inst
system.cpu.itb.walker.walkRequestOrigin::total            0                       # Table walker requests started/completed, data/inst
system.cpu.itb.walker.walks                         0                       # Table walker walks requested
system.cpu.itb.write_accesses                       0                       # DTB write accesses
system.cpu.itb.write_hits                           0                       # DTB write hits
system.cpu.itb.write_misses                         0                       # DTB write misses
system.cpu.numCycles                        110361718                       # number of cpu cycles simulated
system.cpu.numFetchSuspends                         0                       # Number of times Execute suspended instruction fetching
system.cpu.numWorkItemsCompleted                    0                       # number of work items this cpu completed
system.cpu.numWorkItemsStarted                      0                       # number of work items this cpu started
system.cpu.op_class_0::No_OpClass                   0      0.00%      0.00% # Class of committed instruction
system.cpu.op_class_0::IntAlu                72223173     66.18%     66.18% # Class of committed instruction
system.cpu.op_class_0::IntMult                 547032      0.50%     66.68% # Class of committed instruction
system.cpu.op_class_0::IntDiv                       0      0.00%     66.68% # Class of committed instruction
system.cpu.op_class_0::FloatAdd                     0      0.00%     66.68% # Class of committed instruction
system.cpu.op_class_0::FloatCmp                     0      0.00%     66.68% # Class of committed instruction
system.cpu.op_class_0::FloatCvt                     0      0.00%     66.68% # Class of committed instruction
system.cpu.op_class_0::FloatMult                    0      0.00%     66.68% # Class of committed instruction
system.cpu.op_class_0::FloatMultAcc                 0      0.00%     66.68% # Class of committed instruction
system.cpu.op_class_0::FloatDiv                     0      0.00%     66.68% # Class of committed instruction
system.cpu.op_class_0::FloatMisc                    0      0.00%     66.68% # Class of committed instruction
system.cpu.op_class_0::FloatSqrt                    0      0.00%     66.68% # Class of committed instruction
system.cpu.op_class_0::SimdAdd                 231656      0.21%     66.89% # Class of committed instruction
system.cpu.op_class_0::SimdAddAcc                   0      0.00%     66.89% # Class of committed instruction
system.cpu.op_class_0::SimdAlu                 148482      0.14%     67.02% # Class of committed instruction
system.cpu.op_class_0::SimdCmp                 115828      0.11%     67.13% # Class of committed instruction
system.cpu.op_class_0::SimdCvt                      0      0.00%     67.13% # Class of committed instruction
system.cpu.op_class_0::SimdMisc                 42808      0.04%     67.17% # Class of committed instruction
system.cpu.op_class_0::SimdMult                     0      0.00%     67.17% # Class of committed instruction
system.cpu.op_class_0::SimdMultAcc                  0      0.00%     67.17% # Class of committed instruction
system.cpu.op_class_0::SimdShift                    0      0.00%     67.17% # Class of committed instruction
system.cpu.op_class_0::SimdShiftAcc                 0      0.00%     67.17% # Class of committed instruction
system.cpu.op_class_0::SimdDiv                      0      0.00%     67.17% # Class of committed instruction
system.cpu.op_class_0::SimdSqrt                     0      0.00%     67.17% # Class of committed instruction
system.cpu.op_class_0::SimdFloatAdd                 0      0.00%     67.17% # Class of committed instruction
system.cpu.op_class_0::SimdFloatAlu                 0      0.00%     67.17% # Class of committed instruction
system.cpu.op_class_0::SimdFloatCmp                 0      0.00%     67.17% # Class of committed instruction
system.cpu.op_class_0::SimdFloatCvt                 0      0.00%     67.17% # Class of committed instruction
system.cpu.op_class_0::SimdFloatDiv                 0      0.00%     67.17% # Class of committed instruction
system.cpu.op_class_0::SimdFloatMisc           159857      0.15%     67.32% # Class of committed instruction
system.cpu.op_class_0::SimdFloatMult                0      0.00%     67.32% # Class of committed instruction
system.cpu.op_class_0::SimdFloatMultAcc             0      0.00%     67.32% # Class of committed instruction
system.cpu.op_class_0::SimdFloatSqrt                0      0.00%     67.32% # Class of committed instruction
system.cpu.op_class_0::SimdReduceAdd                0      0.00%     67.32% # Class of committed instruction
system.cpu.op_class_0::SimdReduceAlu                0      0.00%     67.32% # Class of committed instruction
system.cpu.op_class_0::SimdReduceCmp                0      0.00%     67.32% # Class of committed instruction
system.cpu.op_class_0::SimdFloatReduceAdd            0      0.00%     67.32% # Class of committed instruction
system.cpu.op_class_0::SimdFloatReduceCmp            0      0.00%     67.32% # Class of committed instruction
system.cpu.op_class_0::SimdAes                      0      0.00%     67.32% # Class of committed instruction
system.cpu.op_class_0::SimdAesMix                   0      0.00%     67.32% # Class of committed instruction
system.cpu.op_class_0::SimdSha1Hash                 0      0.00%     67.32% # Class of committed instruction
system.cpu.op_class_0::SimdSha1Hash2                0      0.00%     67.32% # Class of committed instruction
system.cpu.op_class_0::SimdSha256Hash               0      0.00%     67.32% # Class of committed instruction
system.cpu.op_class_0::SimdSha256Hash2              0      0.00%     67.32% # Class of committed instruction
system.cpu.op_class_0::SimdShaSigma2                0      0.00%     67.32% # Class of committed instruction
system.cpu.op_class_0::SimdShaSigma3                0      0.00%     67.32% # Class of committed instruction
system.cpu.op_class_0::SimdPredAlu                  0      0.00%     67.32% # Class of committed instruction
system.cpu.op_class_0::MemRead               20932798     19.18%     86.50% # Class of committed instruction
system.cpu.op_class_0::MemWrite              14737790     13.50%    100.00% # Class of committed instruction
system.cpu.op_class_0::FloatMemRead                 0      0.00%    100.00% # Class of committed instruction
system.cpu.op_class_0::FloatMemWrite                0      0.00%    100.00% # Class of committed instruction
system.cpu.op_class_0::IprAccess                    0      0.00%    100.00% # Class of committed instruction
system.cpu.op_class_0::InstPrefetch                 0      0.00%    100.00% # Class of committed instruction
system.cpu.op_class_0::total                109139424                       # Class of committed instruction
system.cpu.tickCycles                       106501116                       # Number of cycles that the object actually ticked
system.cpu.workload.numSyscalls                    85                       # Number of system calls
system.membus.snoop_filter.hit_multi_requests            0                       # Number of requests hitting in the snoop filter with multiple (>1) holders of the requested data.
system.membus.snoop_filter.hit_multi_snoops            0                       # Number of snoops hitting in the snoop filter with multiple (>1) holders of the requested data.
system.membus.snoop_filter.hit_single_requests        38737                       # Number of requests hitting in the snoop filter with a single holder of the requested data.
system.membus.snoop_filter.hit_single_snoops            0                       # Number of snoops hitting in the snoop filter with a single holder of the requested data.
system.membus.snoop_filter.tot_requests         86022                       # Total number of requests made to the snoop filter.
system.membus.snoop_filter.tot_snoops               0                       # Total number of snoops made to the snoop filter.
system.tol2bus.snoop_filter.hit_multi_requests         1079                       # Number of requests hitting in the snoop filter with multiple (>1) holders of the requested data.
system.tol2bus.snoop_filter.hit_multi_snoops           91                       # Number of snoops hitting in the snoop filter with multiple (>1) holders of the requested data.
system.tol2bus.snoop_filter.hit_single_requests        82836                       # Number of requests hitting in the snoop filter with a single holder of the requested data.
system.tol2bus.snoop_filter.hit_single_snoops         5136                       # Number of snoops hitting in the snoop filter with a single holder of the requested data.
system.tol2bus.snoop_filter.tot_requests       166622                       # Total number of requests made to the snoop filter.
system.tol2bus.snoop_filter.tot_snoops           5227                       # Total number of snoops made to the snoop filter.
system.membus.pwrStateResidencyTicks::UNDEFINED 110361718000                       # Cumulative time (in ticks) in various power states
system.membus.trans_dist::ReadResp               9426                       # Transaction distribution
system.membus.trans_dist::WritebackDirty        37203                       # Transaction distribution
system.membus.trans_dist::CleanEvict             1445                       # Transaction distribution
system.membus.trans_dist::ReadExReq             37948                       # Transaction distribution
system.membus.trans_dist::ReadExResp            37948                       # Transaction distribution
system.membus.trans_dist::ReadSharedReq          9426                       # Transaction distribution
system.membus.pkt_count_system.l2.mem_side::system.mem_ctrls.port       133396                       # Packet count per connected master and slave (bytes)
system.membus.pkt_count::total                 133396                       # Packet count per connected master and slave (bytes)
system.membus.pkt_size_system.l2.mem_side::system.mem_ctrls.port      5412928                       # Cumulative packet size per connected master and slave (bytes)
system.membus.pkt_size::total                 5412928                       # Cumulative packet size per connected master and slave (bytes)
system.membus.snoops                                0                       # Total snoops (count)
system.membus.snoopTraffic                          0                       # Total snoop traffic (bytes)
system.membus.snoop_fanout::samples             47374                       # Request fanout histogram
system.membus.snoop_fanout::mean                    0                       # Request fanout histogram
system.membus.snoop_fanout::stdev                   0                       # Request fanout histogram
system.membus.snoop_fanout::underflows              0      0.00%      0.00% # Request fanout histogram
system.membus.snoop_fanout::0                   47374    100.00%    100.00% # Request fanout histogram
system.membus.snoop_fanout::1                       0      0.00%    100.00% # Request fanout histogram
system.membus.snoop_fanout::overflows               0      0.00%    100.00% # Request fanout histogram
system.membus.snoop_fanout::min_value               0                       # Request fanout histogram
system.membus.snoop_fanout::max_value               0                       # Request fanout histogram
system.membus.snoop_fanout::total               47374                       # Request fanout histogram
system.membus.respLayer1.occupancy          256221000                       # Layer occupancy (ticks)
system.membus.respLayer1.utilization              0.2                       # Layer utilization (%)
system.membus.reqLayer0.occupancy           234834000                       # Layer occupancy (ticks)
system.membus.reqLayer0.utilization               0.2                       # Layer utilization (%)
system.tol2bus.pwrStateResidencyTicks::UNDEFINED 110361718000                       # Cumulative time (in ticks) in various power states
system.tol2bus.trans_dist::ReadResp             38024                       # Transaction distribution
system.tol2bus.trans_dist::WritebackDirty       106743                       # Transaction distribution
system.tol2bus.trans_dist::WritebackClean          484                       # Transaction distribution
system.tol2bus.trans_dist::CleanEvict           18506                       # Transaction distribution
system.tol2bus.trans_dist::ReadExReq            45764                       # Transaction distribution
system.tol2bus.trans_dist::ReadExResp           45764                       # Transaction distribution
system.tol2bus.trans_dist::ReadCleanReq           926                       # Transaction distribution
system.tol2bus.trans_dist::ReadSharedReq        37098                       # Transaction distribution
system.tol2bus.pkt_count_system.cpu.icache.mem_side::system.l2.cpu_side         2336                       # Packet count per connected master and slave (bytes)
system.tol2bus.pkt_count_system.cpu.dcache.mem_side::system.l2.cpu_side       248074                       # Packet count per connected master and slave (bytes)
system.tol2bus.pkt_count::total                250410                       # Packet count per connected master and slave (bytes)
system.tol2bus.pkt_size_system.cpu.icache.mem_side::system.l2.cpu_side        90240                       # Cumulative packet size per connected master and slave (bytes)
system.tol2bus.pkt_size_system.cpu.dcache.mem_side::system.l2.cpu_side      9753728                       # Cumulative packet size per connected master and slave (bytes)
system.tol2bus.pkt_size::total                9843968                       # Cumulative packet size per connected master and slave (bytes)
system.tol2bus.snoops                           42899                       # Total snoops (count)
system.tol2bus.snoopTraffic                   2380992                       # Total snoop traffic (bytes)
system.tol2bus.snoop_fanout::samples           126687                       # Request fanout histogram
system.tol2bus.snoop_fanout::mean            0.050510                       # Request fanout histogram
system.tol2bus.snoop_fanout::stdev           0.222252                       # Request fanout histogram
system.tol2bus.snoop_fanout::underflows             0      0.00%      0.00% # Request fanout histogram
system.tol2bus.snoop_fanout::0                 120379     95.02%     95.02% # Request fanout histogram
system.tol2bus.snoop_fanout::1                   6217      4.91%     99.93% # Request fanout histogram
system.tol2bus.snoop_fanout::2                     91      0.07%    100.00% # Request fanout histogram
system.tol2bus.snoop_fanout::overflows              0      0.00%    100.00% # Request fanout histogram
system.tol2bus.snoop_fanout::min_value              0                       # Request fanout histogram
system.tol2bus.snoop_fanout::max_value              2                       # Request fanout histogram
system.tol2bus.snoop_fanout::total             126687                       # Request fanout histogram
system.tol2bus.reqLayer0.occupancy          306670000                       # Layer occupancy (ticks)
system.tol2bus.reqLayer0.utilization              0.3                       # Layer utilization (%)
system.tol2bus.respLayer1.occupancy         248586999                       # Layer occupancy (ticks)
system.tol2bus.respLayer1.utilization             0.2                       # Layer utilization (%)
system.tol2bus.respLayer0.occupancy           2778999                       # Layer occupancy (ticks)
system.tol2bus.respLayer0.utilization             0.0                       # Layer utilization (%)
system.voltage_domain.voltage                       1                       # Voltage in Volts
system.clk_domain.clock                          1000                       # Clock period in ticks
system.l2.pwrStateResidencyTicks::UNDEFINED 110361718000                       # Cumulative time (in ticks) in various power states
system.l2.demand_hits::.cpu.inst                  395                       # number of demand (read+write) hits
system.l2.demand_hits::.cpu.data                36017                       # number of demand (read+write) hits
system.l2.demand_hits::total                    36412                       # number of demand (read+write) hits
system.l2.overall_hits::.cpu.inst                 395                       # number of overall hits
system.l2.overall_hits::.cpu.data               36017                       # number of overall hits
system.l2.overall_hits::total                   36412                       # number of overall hits
system.l2.demand_misses::.cpu.inst                531                       # number of demand (read+write) misses
system.l2.demand_misses::.cpu.data              46845                       # number of demand (read+write) misses
system.l2.demand_misses::total                  47376                       # number of demand (read+write) misses
system.l2.overall_misses::.cpu.inst               531                       # number of overall misses
system.l2.overall_misses::.cpu.data             46845                       # number of overall misses
system.l2.overall_misses::total                 47376                       # number of overall misses
system.l2.demand_miss_latency::.cpu.inst     51657000                       # number of demand (read+write) miss cycles
system.l2.demand_miss_latency::.cpu.data   4972576000                       # number of demand (read+write) miss cycles
system.l2.demand_miss_latency::total       5024233000                       # number of demand (read+write) miss cycles
system.l2.overall_miss_latency::.cpu.inst     51657000                       # number of overall miss cycles
system.l2.overall_miss_latency::.cpu.data   4972576000                       # number of overall miss cycles
system.l2.overall_miss_latency::total      5024233000                       # number of overall miss cycles
system.l2.demand_accesses::.cpu.inst              926                       # number of demand (read+write) accesses
system.l2.demand_accesses::.cpu.data            82862                       # number of demand (read+write) accesses
system.l2.demand_accesses::total                83788                       # number of demand (read+write) accesses
system.l2.overall_accesses::.cpu.inst             926                       # number of overall (read+write) accesses
system.l2.overall_accesses::.cpu.data           82862                       # number of overall (read+write) accesses
system.l2.overall_accesses::total               83788                       # number of overall (read+write) accesses
system.l2.demand_miss_rate::.cpu.inst        0.573434                       # miss rate for demand accesses
system.l2.demand_miss_rate::.cpu.data        0.565338                       # miss rate for demand accesses
system.l2.demand_miss_rate::total            0.565427                       # miss rate for demand accesses
system.l2.overall_miss_rate::.cpu.inst       0.573434                       # miss rate for overall accesses
system.l2.overall_miss_rate::.cpu.data       0.565338                       # miss rate for overall accesses
system.l2.overall_miss_rate::total           0.565427                       # miss rate for overall accesses
system.l2.demand_avg_miss_latency::.cpu.inst 97282.485876                       # average overall miss latency
system.l2.demand_avg_miss_latency::.cpu.data 106149.557050                       # average overall miss latency
system.l2.demand_avg_miss_latency::total 106050.173083                       # average overall miss latency
system.l2.overall_avg_miss_latency::.cpu.inst 97282.485876                       # average overall miss latency
system.l2.overall_avg_miss_latency::.cpu.data 106149.557050                       # average overall miss latency
system.l2.overall_avg_miss_latency::total 106050.173083                       # average overall miss latency
system.l2.blocked_cycles::no_mshrs                  0                       # number of cycles access was blocked
system.l2.blocked_cycles::no_targets                0                       # number of cycles access was blocked
system.l2.blocked::no_mshrs                         0                       # number of cycles access was blocked
system.l2.blocked::no_targets                       0                       # number of cycles access was blocked
system.l2.avg_blocked_cycles::no_mshrs            nan                       # average number of cycles each access was blocked
system.l2.avg_blocked_cycles::no_targets          nan                       # average number of cycles each access was blocked
system.l2.writebacks::.writebacks               37203                       # number of writebacks
system.l2.writebacks::total                     37203                       # number of writebacks
system.l2.demand_mshr_hits::.cpu.inst               1                       # number of demand (read+write) MSHR hits
system.l2.demand_mshr_hits::.cpu.data               1                       # number of demand (read+write) MSHR hits
system.l2.demand_mshr_hits::total                   2                       # number of demand (read+write) MSHR hits
system.l2.overall_mshr_hits::.cpu.inst              1                       # number of overall MSHR hits
system.l2.overall_mshr_hits::.cpu.data              1                       # number of overall MSHR hits
system.l2.overall_mshr_hits::total                  2                       # number of overall MSHR hits
system.l2.demand_mshr_misses::.cpu.inst           530                       # number of demand (read+write) MSHR misses
system.l2.demand_mshr_misses::.cpu.data         46844                       # number of demand (read+write) MSHR misses
system.l2.demand_mshr_misses::total             47374                       # number of demand (read+write) MSHR misses
system.l2.overall_mshr_misses::.cpu.inst          530                       # number of overall MSHR misses
system.l2.overall_mshr_misses::.cpu.data        46844                       # number of overall MSHR misses
system.l2.overall_mshr_misses::total            47374                       # number of overall MSHR misses
system.l2.demand_mshr_miss_latency::.cpu.inst     40983000                       # number of demand (read+write) MSHR miss cycles
system.l2.demand_mshr_miss_latency::.cpu.data   4035609000                       # number of demand (read+write) MSHR miss cycles
system.l2.demand_mshr_miss_latency::total   4076592000                       # number of demand (read+write) MSHR miss cycles
system.l2.overall_mshr_miss_latency::.cpu.inst     40983000                       # number of overall MSHR miss cycles
system.l2.overall_mshr_miss_latency::.cpu.data   4035609000                       # number of overall MSHR miss cycles
system.l2.overall_mshr_miss_latency::total   4076592000                       # number of overall MSHR miss cycles
system.l2.demand_mshr_miss_rate::.cpu.inst     0.572354                       # mshr miss rate for demand accesses
system.l2.demand_mshr_miss_rate::.cpu.data     0.565325                       # mshr miss rate for demand accesses
system.l2.demand_mshr_miss_rate::total       0.565403                       # mshr miss rate for demand accesses
system.l2.overall_mshr_miss_rate::.cpu.inst     0.572354                       # mshr miss rate for overall accesses
system.l2.overall_mshr_miss_rate::.cpu.data     0.565325                       # mshr miss rate for overall accesses
system.l2.overall_mshr_miss_rate::total      0.565403                       # mshr miss rate for overall accesses
system.l2.demand_avg_mshr_miss_latency::.cpu.inst 77326.415094                       # average overall mshr miss latency
system.l2.demand_avg_mshr_miss_latency::.cpu.data 86149.965844                       # average overall mshr miss latency
system.l2.demand_avg_mshr_miss_latency::total 86051.251741                       # average overall mshr miss latency
system.l2.overall_avg_mshr_miss_latency::.cpu.inst 77326.415094                       # average overall mshr miss latency
system.l2.overall_avg_mshr_miss_latency::.cpu.data 86149.965844                       # average overall mshr miss latency
system.l2.overall_avg_mshr_miss_latency::total 86051.251741                       # average overall mshr miss latency
system.l2.replacements                          42899                       # number of replacements
system.l2.WritebackDirty_hits::.writebacks        69540                       # number of WritebackDirty hits
system.l2.WritebackDirty_hits::total            69540                       # number of WritebackDirty hits
system.l2.WritebackDirty_accesses::.writebacks        69540                       # number of WritebackDirty accesses(hits+misses)
system.l2.WritebackDirty_accesses::total        69540                       # number of WritebackDirty accesses(hits+misses)
system.l2.WritebackClean_hits::.writebacks          483                       # number of WritebackClean hits
system.l2.WritebackClean_hits::total              483                       # number of WritebackClean hits
system.l2.WritebackClean_accesses::.writebacks          483                       # number of WritebackClean accesses(hits+misses)
system.l2.WritebackClean_accesses::total          483                       # number of WritebackClean accesses(hits+misses)
system.l2.CleanEvict_mshr_misses::.writebacks          976                       # number of CleanEvict MSHR misses
system.l2.CleanEvict_mshr_misses::total           976                       # number of CleanEvict MSHR misses
system.l2.CleanEvict_mshr_miss_rate::.writebacks          inf                       # mshr miss rate for CleanEvict accesses
system.l2.CleanEvict_mshr_miss_rate::total          inf                       # mshr miss rate for CleanEvict accesses
system.l2.ReadExReq_hits::.cpu.data              7816                       # number of ReadExReq hits
system.l2.ReadExReq_hits::total                  7816                       # number of ReadExReq hits
system.l2.ReadExReq_misses::.cpu.data           37948                       # number of ReadExReq misses
system.l2.ReadExReq_misses::total               37948                       # number of ReadExReq misses
system.l2.ReadExReq_miss_latency::.cpu.data   4002032000                       # number of ReadExReq miss cycles
system.l2.ReadExReq_miss_latency::total    4002032000                       # number of ReadExReq miss cycles
system.l2.ReadExReq_accesses::.cpu.data         45764                       # number of ReadExReq accesses(hits+misses)
system.l2.ReadExReq_accesses::total             45764                       # number of ReadExReq accesses(hits+misses)
system.l2.ReadExReq_miss_rate::.cpu.data     0.829211                       # miss rate for ReadExReq accesses
system.l2.ReadExReq_miss_rate::total         0.829211                       # miss rate for ReadExReq accesses
system.l2.ReadExReq_avg_miss_latency::.cpu.data 105460.946558                       # average ReadExReq miss latency
system.l2.ReadExReq_avg_miss_latency::total 105460.946558                       # average ReadExReq miss latency
system.l2.ReadExReq_mshr_misses::.cpu.data        37948                       # number of ReadExReq MSHR misses
system.l2.ReadExReq_mshr_misses::total          37948                       # number of ReadExReq MSHR misses
system.l2.ReadExReq_mshr_miss_latency::.cpu.data   3243072000                       # number of ReadExReq MSHR miss cycles
system.l2.ReadExReq_mshr_miss_latency::total   3243072000                       # number of ReadExReq MSHR miss cycles
system.l2.ReadExReq_mshr_miss_rate::.cpu.data     0.829211                       # mshr miss rate for ReadExReq accesses
system.l2.ReadExReq_mshr_miss_rate::total     0.829211                       # mshr miss rate for ReadExReq accesses
system.l2.ReadExReq_avg_mshr_miss_latency::.cpu.data 85460.946558                       # average ReadExReq mshr miss latency
system.l2.ReadExReq_avg_mshr_miss_latency::total 85460.946558                       # average ReadExReq mshr miss latency
system.l2.ReadCleanReq_hits::.cpu.inst            395                       # number of ReadCleanReq hits
system.l2.ReadCleanReq_hits::total                395                       # number of ReadCleanReq hits
system.l2.ReadCleanReq_misses::.cpu.inst          531                       # number of ReadCleanReq misses
system.l2.ReadCleanReq_misses::total              531                       # number of ReadCleanReq misses
system.l2.ReadCleanReq_miss_latency::.cpu.inst     51657000                       # number of ReadCleanReq miss cycles
system.l2.ReadCleanReq_miss_latency::total     51657000                       # number of ReadCleanReq miss cycles
system.l2.ReadCleanReq_accesses::.cpu.inst          926                       # number of ReadCleanReq accesses(hits+misses)
system.l2.ReadCleanReq_accesses::total            926                       # number of ReadCleanReq accesses(hits+misses)
system.l2.ReadCleanReq_miss_rate::.cpu.inst     0.573434                       # miss rate for ReadCleanReq accesses
system.l2.ReadCleanReq_miss_rate::total      0.573434                       # miss rate for ReadCleanReq accesses
system.l2.ReadCleanReq_avg_miss_latency::.cpu.inst 97282.485876                       # average ReadCleanReq miss latency
system.l2.ReadCleanReq_avg_miss_latency::total 97282.485876                       # average ReadCleanReq miss latency
system.l2.ReadCleanReq_mshr_hits::.cpu.inst            1                       # number of ReadCleanReq MSHR hits
system.l2.ReadCleanReq_mshr_hits::total             1                       # number of ReadCleanReq MSHR hits
system.l2.ReadCleanReq_mshr_misses::.cpu.inst          530                       # number of ReadCleanReq MSHR misses
system.l2.ReadCleanReq_mshr_misses::total          530                       # number of ReadCleanReq MSHR misses
system.l2.ReadCleanReq_mshr_miss_latency::.cpu.inst     40983000                       # number of ReadCleanReq MSHR miss cycles
system.l2.ReadCleanReq_mshr_miss_latency::total     40983000                       # number of ReadCleanReq MSHR miss cycles
system.l2.ReadCleanReq_mshr_miss_rate::.cpu.inst     0.572354                       # mshr miss rate for ReadCleanReq accesses
system.l2.ReadCleanReq_mshr_miss_rate::total     0.572354                       # mshr miss rate for ReadCleanReq accesses
system.l2.ReadCleanReq_avg_mshr_miss_latency::.cpu.inst 77326.415094                       # average ReadCleanReq mshr miss latency
system.l2.ReadCleanReq_avg_mshr_miss_latency::total 77326.415094                       # average ReadCleanReq mshr miss latency
system.l2.ReadSharedReq_hits::.cpu.data         28201                       # number of ReadSharedReq hits
system.l2.ReadSharedReq_hits::total             28201                       # number of ReadSharedReq hits
system.l2.ReadSharedReq_misses::.cpu.data         8897                       # number of ReadSharedReq misses
system.l2.ReadSharedReq_misses::total            8897                       # number of ReadSharedReq misses
system.l2.ReadSharedReq_miss_latency::.cpu.data    970544000                       # number of ReadSharedReq miss cycles
system.l2.ReadSharedReq_miss_latency::total    970544000                       # number of ReadSharedReq miss cycles
system.l2.ReadSharedReq_accesses::.cpu.data        37098                       # number of ReadSharedReq accesses(hits+misses)
system.l2.ReadSharedReq_accesses::total         37098                       # number of ReadSharedReq accesses(hits+misses)
system.l2.ReadSharedReq_miss_rate::.cpu.data     0.239824                       # miss rate for ReadSharedReq accesses
system.l2.ReadSharedReq_miss_rate::total     0.239824                       # miss rate for ReadSharedReq accesses
system.l2.ReadSharedReq_avg_miss_latency::.cpu.data 109086.658424                       # average ReadSharedReq miss latency
system.l2.ReadSharedReq_avg_miss_latency::total 109086.658424                       # average ReadSharedReq miss latency
system.l2.ReadSharedReq_mshr_hits::.cpu.data            1                       # number of ReadSharedReq MSHR hits
system.l2.ReadSharedReq_mshr_hits::total            1                       # number of ReadSharedReq MSHR hits
system.l2.ReadSharedReq_mshr_misses::.cpu.data         8896                       # number of ReadSharedReq MSHR misses
system.l2.ReadSharedReq_mshr_misses::total         8896                       # number of ReadSharedReq MSHR misses
system.l2.ReadSharedReq_mshr_miss_latency::.cpu.data    792537000                       # number of ReadSharedReq MSHR miss cycles
system.l2.ReadSharedReq_mshr_miss_latency::total    792537000                       # number of ReadSharedReq MSHR miss cycles
system.l2.ReadSharedReq_mshr_miss_rate::.cpu.data     0.239797                       # mshr miss rate for ReadSharedReq accesses
system.l2.ReadSharedReq_mshr_miss_rate::total     0.239797                       # mshr miss rate for ReadSharedReq accesses
system.l2.ReadSharedReq_avg_mshr_miss_latency::.cpu.data 89089.141187                       # average ReadSharedReq mshr miss latency
system.l2.ReadSharedReq_avg_mshr_miss_latency::total 89089.141187                       # average ReadSharedReq mshr miss latency
system.l2.tags.pwrStateResidencyTicks::UNDEFINED 110361718000                       # Cumulative time (in ticks) in various power states
system.l2.tags.tagsinuse                  7908.298677                       # Cycle average of tags in use
system.l2.tags.total_refs                      164565                       # Total number of references to valid blocks.
system.l2.tags.sampled_refs                     51091                       # Sample count of references to valid blocks.
system.l2.tags.avg_refs                      3.221017                       # Average number of references to valid blocks.
system.l2.tags.warmup_cycle                     87000                       # Cycle when the warmup percentage was hit.
system.l2.tags.occ_blocks::.writebacks     223.000460                       # Average occupied blocks per requestor
system.l2.tags.occ_blocks::.cpu.inst        14.673743                       # Average occupied blocks per requestor
system.l2.tags.occ_blocks::.cpu.data      7670.624474                       # Average occupied blocks per requestor
system.l2.tags.occ_percent::.writebacks      0.027222                       # Average percentage of cache occupancy
system.l2.tags.occ_percent::.cpu.inst        0.001791                       # Average percentage of cache occupancy
system.l2.tags.occ_percent::.cpu.data        0.936356                       # Average percentage of cache occupancy
system.l2.tags.occ_percent::total            0.965368                       # Average percentage of cache occupancy
system.l2.tags.occ_task_id_blocks::1024          8192                       # Occupied blocks per task id
system.l2.tags.age_task_id_blocks_1024::0            4                       # Occupied blocks per task id
system.l2.tags.age_task_id_blocks_1024::1           20                       # Occupied blocks per task id
system.l2.tags.age_task_id_blocks_1024::2          224                       # Occupied blocks per task id
system.l2.tags.age_task_id_blocks_1024::3         2358                       # Occupied blocks per task id
system.l2.tags.age_task_id_blocks_1024::4         5586                       # Occupied blocks per task id
system.l2.tags.occ_task_id_percent::1024            1                       # Percentage of cache occupancy per task id
system.l2.tags.tag_accesses                    216634                       # Number of tag accesses
system.l2.tags.data_accesses                   216634                       # Number of data accesses
system.cpu_voltage_domain.voltage                   1                       # Voltage in Volts
system.mem_ctrls.pwrStateResidencyTicks::UNDEFINED 110361718000                       # Cumulative time (in ticks) in various power states
system.mem_ctrls.bytes_read::.cpu.inst          33920                       # Number of bytes read from this memory
system.mem_ctrls.bytes_read::.cpu.data        2998016                       # Number of bytes read from this memory
system.mem_ctrls.bytes_read::total            3031936                       # Number of bytes read from this memory
system.mem_ctrls.bytes_inst_read::.cpu.inst        33920                       # Number of instructions bytes read from this memory
system.mem_ctrls.bytes_inst_read::total         33920                       # Number of instructions bytes read from this memory
system.mem_ctrls.bytes_written::.writebacks      2380992                       # Number of bytes written to this memory
system.mem_ctrls.bytes_written::total         2380992                       # Number of bytes written to this memory
system.mem_ctrls.num_reads::.cpu.inst             530                       # Number of read requests responded to by this memory
system.mem_ctrls.num_reads::.cpu.data           46844                       # Number of read requests responded to by this memory
system.mem_ctrls.num_reads::total               47374                       # Number of read requests responded to by this memory
system.mem_ctrls.num_writes::.writebacks        37203                       # Number of write requests responded to by this memory
system.mem_ctrls.num_writes::total              37203                       # Number of write requests responded to by this memory
system.mem_ctrls.bw_read::.cpu.inst            307353                       # Total read bandwidth from this memory (bytes/s)
system.mem_ctrls.bw_read::.cpu.data          27165362                       # Total read bandwidth from this memory (bytes/s)
system.mem_ctrls.bw_read::total              27472715                       # Total read bandwidth from this memory (bytes/s)
system.mem_ctrls.bw_inst_read::.cpu.inst       307353                       # Instruction read bandwidth from this memory (bytes/s)
system.mem_ctrls.bw_inst_read::total           307353                       # Instruction read bandwidth from this memory (bytes/s)
system.mem_ctrls.bw_write::.writebacks       21574438                       # Write bandwidth from this memory (bytes/s)
system.mem_ctrls.bw_write::total             21574438                       # Write bandwidth from this memory (bytes/s)
system.mem_ctrls.bw_total::.writebacks       21574438                       # Total bandwidth to/from this memory (bytes/s)
system.mem_ctrls.bw_total::.cpu.inst           307353                       # Total bandwidth to/from this memory (bytes/s)
system.mem_ctrls.bw_total::.cpu.data         27165362                       # Total bandwidth to/from this memory (bytes/s)
system.mem_ctrls.bw_total::total             49047152                       # Total bandwidth to/from this memory (bytes/s)
system.mem_ctrls.avgPriority_.writebacks::samples     37199.00                       # Average QoS priority value for accepted requests
system.mem_ctrls.avgPriority_.cpu.inst::samples       530.00                       # Average QoS priority value for accepted requests
system.mem_ctrls.avgPriority_.cpu.data::samples     46796.00                       # Average QoS priority value for accepted requests
system.mem_ctrls.priorityMinLatency      0.000000018750                       # per QoS priority minimum request to response latency (s)
system.mem_ctrls.priorityMaxLatency      0.001262802500                       # per QoS priority maximum request to response latency (s)
system.mem_ctrls.numReadWriteTurnArounds         2089                       # Number of turnarounds from READ to WRITE
system.mem_ctrls.numWriteReadTurnArounds         2089                       # Number of turnarounds from WRITE to READ
system.mem_ctrls.numStayReadState              159551                       # Number of times bus staying in READ state
system.mem_ctrls.numStayWriteState              35132                       # Number of times bus staying in WRITE state
system.mem_ctrls.readReqs                       47374                       # Number of read requests accepted
system.mem_ctrls.writeReqs                      37203                       # Number of write requests accepted
system.mem_ctrls.readBursts                     47374                       # Number of DRAM read bursts, including those serviced by the write queue
system.mem_ctrls.writeBursts                    37203                       # Number of DRAM write bursts, including those merged in the write queue
system.mem_ctrls.servicedByWrQ                     48                       # Number of DRAM read bursts serviced by the write queue
system.mem_ctrls.mergedWrBursts                     4                       # Number of DRAM write bursts merged with an existing one
system.mem_ctrls.neitherReadNorWriteReqs            0                       # Number of requests that are neither read nor write
system.mem_ctrls.perBankRdBursts::0              2845                       # Per bank write bursts
system.mem_ctrls.perBankRdBursts::1              2812                       # Per bank write bursts
system.mem_ctrls.perBankRdBursts::2              3419                       # Per bank write bursts
system.mem_ctrls.perBankRdBursts::3              3736                       # Per bank write bursts
system.mem_ctrls.perBankRdBursts::4              3047                       # Per bank write bursts
system.mem_ctrls.perBankRdBursts::5              2952                       # Per bank write bursts
system.mem_ctrls.perBankRdBursts::6              2900                       # Per bank write bursts
system.mem_ctrls.perBankRdBursts::7              2932                       # Per bank write bursts
system.mem_ctrls.perBankRdBursts::8              2903                       # Per bank write bursts
system.mem_ctrls.perBankRdBursts::9              2765                       # Per bank write bursts
system.mem_ctrls.perBankRdBursts::10             2873                       # Per bank write bursts
system.mem_ctrls.perBankRdBursts::11             2800                       # Per bank write bursts
system.mem_ctrls.perBankRdBursts::12             2766                       # Per bank write bursts
system.mem_ctrls.perBankRdBursts::13             2890                       # Per bank write bursts
system.mem_ctrls.perBankRdBursts::14             2780                       # Per bank write bursts
system.mem_ctrls.perBankRdBursts::15             2906                       # Per bank write bursts
system.mem_ctrls.perBankWrBursts::0              2263                       # Per bank write bursts
system.mem_ctrls.perBankWrBursts::1              2240                       # Per bank write bursts
system.mem_ctrls.perBankWrBursts::2              2435                       # Per bank write bursts
system.mem_ctrls.perBankWrBursts::3              2628                       # Per bank write bursts
system.mem_ctrls.perBankWrBursts::4              2372                       # Per bank write bursts
system.mem_ctrls.perBankWrBursts::5              2385                       # Per bank write bursts
system.mem_ctrls.perBankWrBursts::6              2356                       # Per bank write bursts
system.mem_ctrls.perBankWrBursts::7              2354                       # Per bank write bursts
system.mem_ctrls.perBankWrBursts::8              2317                       # Per bank write bursts
system.mem_ctrls.perBankWrBursts::9              2219                       # Per bank write bursts
system.mem_ctrls.perBankWrBursts::10             2264                       # Per bank write bursts
system.mem_ctrls.perBankWrBursts::11             2260                       # Per bank write bursts
system.mem_ctrls.perBankWrBursts::12             2245                       # Per bank write bursts
system.mem_ctrls.perBankWrBursts::13             2274                       # Per bank write bursts
system.mem_ctrls.perBankWrBursts::14             2263                       # Per bank write bursts
system.mem_ctrls.perBankWrBursts::15             2300                       # Per bank write bursts
system.mem_ctrls.avgRdQLen                       1.06                       # Average read queue length when enqueuing
system.mem_ctrls.avgWrQLen                      24.50                       # Average write queue length when enqueuing
system.mem_ctrls.totQLat                    754067250                       # Total ticks spent queuing
system.mem_ctrls.totBusLat                  236630000                       # Total ticks spent in databus transfers
system.mem_ctrls.totMemAccLat              1641429750                       # Total ticks spent from burst creation until serviced by the DRAM
system.mem_ctrls.avgQLat                     15933.47                       # Average queueing delay per DRAM burst
system.mem_ctrls.avgBusLat                    5000.00                       # Average bus latency per DRAM burst
system.mem_ctrls.avgMemAccLat                34683.47                       # Average memory access latency per DRAM burst
system.mem_ctrls.numRdRetry                         0                       # Number of times read queue was full causing retry
system.mem_ctrls.numWrRetry                         0                       # Number of times write queue was full causing retry
system.mem_ctrls.readRowHits                    18767                       # Number of row buffer hits during reads
system.mem_ctrls.writeRowHits                   28382                       # Number of row buffer hits during writes
system.mem_ctrls.readRowHitRate                 39.65                       # Row buffer hit rate for reads
system.mem_ctrls.writeRowHitRate                76.30                       # Row buffer hit rate for writes
system.mem_ctrls.readPktSize::0                     0                       # Read request sizes (log2)
system.mem_ctrls.readPktSize::1                     0                       # Read request sizes (log2)
system.mem_ctrls.readPktSize::2                     0                       # Read request sizes (log2)
system.mem_ctrls.readPktSize::3                     0                       # Read request sizes (log2)
system.mem_ctrls.readPktSize::4                     0                       # Read request sizes (log2)
system.mem_ctrls.readPktSize::5                     0                       # Read request sizes (log2)
system.mem_ctrls.readPktSize::6                 47374                       # Read request sizes (log2)
system.mem_ctrls.writePktSize::0                    0                       # Write request sizes (log2)
system.mem_ctrls.writePktSize::1                    0                       # Write request sizes (log2)
system.mem_ctrls.writePktSize::2                    0                       # Write request sizes (log2)
system.mem_ctrls.writePktSize::3                    0                       # Write request sizes (log2)
system.mem_ctrls.writePktSize::4                    0                       # Write request sizes (log2)
system.mem_ctrls.writePktSize::5                    0                       # Write request sizes (log2)
system.mem_ctrls.writePktSize::6                37203                       # Write request sizes (log2)
system.mem_ctrls.rdQLenPdf::0                   45268                       # What read queue length does an incoming req see
system.mem_ctrls.rdQLenPdf::1                    2050                       # What read queue length does an incoming req see
system.mem_ctrls.rdQLenPdf::2                       8                       # What read queue length does an incoming req see
system.mem_ctrls.rdQLenPdf::3                       0                       # What read queue length does an incoming req see
system.mem_ctrls.rdQLenPdf::4                       0                       # What read queue length does an incoming req see
system.mem_ctrls.rdQLenPdf::5                       0                       # What read queue length does an incoming req see
system.mem_ctrls.rdQLenPdf::6                       0                       # What read queue length does an incoming req see
system.mem_ctrls.rdQLenPdf::7                       0                       # What read queue length does an incoming req see
system.mem_ctrls.rdQLenPdf::8                       0                       # What read queue length does an incoming req see
system.mem_ctrls.rdQLenPdf::9                       0                       # What read queue length does an incoming req see
system.mem_ctrls.rdQLenPdf::10                      0                       # What read queue length does an incoming req see
system.mem_ctrls.rdQLenPdf::11                      0                       # What read queue length does an incoming req see
system.mem_ctrls.rdQLenPdf::12                      0                       # What read queue length does an incoming req see
system.mem_ctrls.rdQLenPdf::13                      0                       # What read queue length does an incoming req see
system.mem_ctrls.rdQLenPdf::14                      0                       # What read queue length does an incoming req see
system.mem_ctrls.rdQLenPdf::15                      0                       # What read queue length does an incoming req see
system.mem_ctrls.rdQLenPdf::16                      0                       # What read queue length does an incoming req see
system.mem_ctrls.rdQLenPdf::17                      0                       # What read queue length does an incoming req see
system.mem_ctrls.rdQLenPdf::18                      0                       # What read queue length does an incoming req see
system.mem_ctrls.rdQLenPdf::19                      0                       # What read queue length does an incoming req see
system.mem_ctrls.rdQLenPdf::20                      0                       # What read queue length does an incoming req see
system.mem_ctrls.rdQLenPdf::21                      0                       # What read queue length does an incoming req see
system.mem_ctrls.rdQLenPdf::22                      0                       # What read queue length does an incoming req see
system.mem_ctrls.rdQLenPdf::23                      0                       # What read queue length does an incoming req see
system.mem_ctrls.rdQLenPdf::24                      0                       # What read queue length does an incoming req see
system.mem_ctrls.rdQLenPdf::25                      0                       # What read queue length does an incoming req see
system.mem_ctrls.rdQLenPdf::26                      0                       # What read queue length does an incoming req see
system.mem_ctrls.rdQLenPdf::27                      0                       # What read queue length does an incoming req see
system.mem_ctrls.rdQLenPdf::28                      0                       # What read queue length does an incoming req see
system.mem_ctrls.rdQLenPdf::29                      0                       # What read queue length does an incoming req see
system.mem_ctrls.rdQLenPdf::30                      0                       # What read queue length does an incoming req see
system.mem_ctrls.rdQLenPdf::31                      0                       # What read queue length does an incoming req see
system.mem_ctrls.wrQLenPdf::0                       1                       # What write queue length does an incoming req see
system.mem_ctrls.wrQLenPdf::1                       1                       # What write queue length does an incoming req see
system.mem_ctrls.wrQLenPdf::2                       1                       # What write queue length does an incoming req see
system.mem_ctrls.wrQLenPdf::3                       1                       # What write queue length does an incoming req see
system.mem_ctrls.wrQLenPdf::4                       1                       # What write queue length does an incoming req see
system.mem_ctrls.wrQLenPdf::5                       1                       # What write queue length does an incoming req see
system.mem_ctrls.wrQLenPdf::6                       1                       # What write queue length does an incoming req see
system.mem_ctrls.wrQLenPdf::7                       1                       # What write queue length does an incoming req see
system.mem_ctrls.wrQLenPdf::8                       1                       # What write queue length does an incoming req see
system.mem_ctrls.wrQLenPdf::9                       1                       # What write queue length does an incoming req see
system.mem_ctrls.wrQLenPdf::10                      1                       # What write queue length does an incoming req see
system.mem_ctrls.wrQLenPdf::11                      1                       # What write queue length does an incoming req see
system.mem_ctrls.wrQLenPdf::12                      1                       # What write queue length does an incoming req see
system.mem_ctrls.wrQLenPdf::13                      1                       # What write queue length does an incoming req see
system.mem_ctrls.wrQLenPdf::14                      1                       # What write queue length does an incoming req see
system.mem_ctrls.wrQLenPdf::15                   1770                       # What write queue length does an incoming req see
system.mem_ctrls.wrQLenPdf::16                   1773                       # What write queue length does an incoming req see
system.mem_ctrls.wrQLenPdf::17                   2087                       # What write queue length does an incoming req see
system.mem_ctrls.wrQLenPdf::18                   2097                       # What write queue length does an incoming req see
system.mem_ctrls.wrQLenPdf::19                   2097                       # What write queue length does an incoming req see
system.mem_ctrls.wrQLenPdf::20                   2102                       # What write queue length does an incoming req see
system.mem_ctrls.wrQLenPdf::21                   2114                       # What write queue length does an incoming req see
system.mem_ctrls.wrQLenPdf::22                   2116                       # What write queue length does an incoming req see
system.mem_ctrls.wrQLenPdf::23                   2122                       # What write queue length does an incoming req see
system.mem_ctrls.wrQLenPdf::24                   2107                       # What write queue length does an incoming req see
system.mem_ctrls.wrQLenPdf::25                   2100                       # What write queue length does an incoming req see
system.mem_ctrls.wrQLenPdf::26                   2094                       # What write queue length does an incoming req see
system.mem_ctrls.wrQLenPdf::27                   2110                       # What write queue length does an incoming req see
system.mem_ctrls.wrQLenPdf::28                   2124                       # What write queue length does an incoming req see
system.mem_ctrls.wrQLenPdf::29                   2101                       # What write queue length does an incoming req see
system.mem_ctrls.wrQLenPdf::30                   2090                       # What write queue length does an incoming req see
system.mem_ctrls.wrQLenPdf::31                   2089                       # What write queue length does an incoming req see
system.mem_ctrls.wrQLenPdf::32                   2089                       # What write queue length does an incoming req see
system.mem_ctrls.wrQLenPdf::33                      2                       # What write queue length does an incoming req see
system.mem_ctrls.wrQLenPdf::34                      0                       # What write queue length does an incoming req see
system.mem_ctrls.wrQLenPdf::35                      0                       # What write queue length does an incoming req see
system.mem_ctrls.wrQLenPdf::36                      0                       # What write queue length does an incoming req see
system.mem_ctrls.wrQLenPdf::37                      0                       # What write queue length does an incoming req see
system.mem_ctrls.wrQLenPdf::38                      0                       # What write queue length does an incoming req see
system.mem_ctrls.wrQLenPdf::39                      0                       # What write queue length does an incoming req see
system.mem_ctrls.wrQLenPdf::40                      0                       # What write queue length does an incoming req see
system.mem_ctrls.wrQLenPdf::41                      0                       # What write queue length does an incoming req see
system.mem_ctrls.wrQLenPdf::42                      0                       # What write queue length does an incoming req see
system.mem_ctrls.wrQLenPdf::43                      0                       # What write queue length does an incoming req see
system.mem_ctrls.wrQLenPdf::44                      0                       # What write queue length does an incoming req see
system.mem_ctrls.wrQLenPdf::45                      0                       # What write queue length does an incoming req see
system.mem_ctrls.wrQLenPdf::46                      0                       # What write queue length does an incoming req see
system.mem_ctrls.wrQLenPdf::47                      0                       # What write queue length does an incoming req see
system.mem_ctrls.wrQLenPdf::48                      0                       # What write queue length does an incoming req see
system.mem_ctrls.wrQLenPdf::49                      0                       # What write queue length does an incoming req see
system.mem_ctrls.wrQLenPdf::50                      0                       # What write queue length does an incoming req see
system.mem_ctrls.wrQLenPdf::51                      0                       # What write queue length does an incoming req see
system.mem_ctrls.wrQLenPdf::52                      0                       # What write queue length does an incoming req see
system.mem_ctrls.wrQLenPdf::53                      0                       # What write queue length does an incoming req see
system.mem_ctrls.wrQLenPdf::54                      0                       # What write queue length does an incoming req see
system.mem_ctrls.wrQLenPdf::55                      0                       # What write queue length does an incoming req see
system.mem_ctrls.wrQLenPdf::56                      0                       # What write queue length does an incoming req see
system.mem_ctrls.wrQLenPdf::57                      0                       # What write queue length does an incoming req see
system.mem_ctrls.wrQLenPdf::58                      0                       # What write queue length does an incoming req see
system.mem_ctrls.wrQLenPdf::59                      0                       # What write queue length does an incoming req see
system.mem_ctrls.wrQLenPdf::60                      0                       # What write queue length does an incoming req see
system.mem_ctrls.wrQLenPdf::61                      0                       # What write queue length does an incoming req see
system.mem_ctrls.wrQLenPdf::62                      0                       # What write queue length does an incoming req see
system.mem_ctrls.wrQLenPdf::63                      0                       # What write queue length does an incoming req see
system.mem_ctrls.bytesPerActivate::samples        37350                       # Bytes accessed per row activation
system.mem_ctrls.bytesPerActivate::mean    144.790790                       # Bytes accessed per row activation
system.mem_ctrls.bytesPerActivate::gmean   104.211151                       # Bytes accessed per row activation
system.mem_ctrls.bytesPerActivate::stdev   175.837404                       # Bytes accessed per row activation
system.mem_ctrls.bytesPerActivate::0-127        21060     56.39%     56.39% # Bytes accessed per row activation
system.mem_ctrls.bytesPerActivate::128-255        11735     31.42%     87.80% # Bytes accessed per row activation
system.mem_ctrls.bytesPerActivate::256-383         2084      5.58%     93.38% # Bytes accessed per row activation
system.mem_ctrls.bytesPerActivate::384-511          609      1.63%     95.01% # Bytes accessed per row activation
system.mem_ctrls.bytesPerActivate::512-639          316      0.85%     95.86% # Bytes accessed per row activation
system.mem_ctrls.bytesPerActivate::640-767          289      0.77%     96.63% # Bytes accessed per row activation
system.mem_ctrls.bytesPerActivate::768-895          323      0.86%     97.50% # Bytes accessed per row activation
system.mem_ctrls.bytesPerActivate::896-1023          412      1.10%     98.60% # Bytes accessed per row activation
system.mem_ctrls.bytesPerActivate::1024-1151          522      1.40%    100.00% # Bytes accessed per row activation
system.mem_ctrls.bytesPerActivate::total        37350                       # Bytes accessed per row activation
system.mem_ctrls.rdPerTurnAround::samples         2089                       # Reads before turning the bus around for writes
system.mem_ctrls.rdPerTurnAround::mean      22.650072                       # Reads before turning the bus around for writes
system.mem_ctrls.rdPerTurnAround::gmean     20.399756                       # Reads before turning the bus around for writes
system.mem_ctrls.rdPerTurnAround::stdev     30.105491                       # Reads before turning the bus around for writes
system.mem_ctrls.rdPerTurnAround::0-63           2065     98.85%     98.85% # Reads before turning the bus around for writes
system.mem_ctrls.rdPerTurnAround::64-127           23      1.10%     99.95% # Reads before turning the bus around for writes
[...]
system.cpu.icache.ReadReq_avg_miss_latency::total 69761.339093                       # average ReadReq miss latency
system.cpu.icache.ReadReq_mshr_misses::.cpu.inst          926                       # number of ReadReq MSHR misses
system.cpu.icache.ReadReq_mshr_misses::total          926                       # number of ReadReq MSHR misses
system.cpu.icache.ReadReq_mshr_miss_latency::.cpu.inst     62747000                       # number of ReadReq MSHR miss cycles
system.cpu.icache.ReadReq_mshr_miss_latency::total     62747000                       # number of ReadReq MSHR miss cycles
system.cpu.icache.ReadReq_mshr_miss_rate::.cpu.inst     0.000034                       # mshr miss rate for ReadReq accesses
system.cpu.icache.ReadReq_mshr_miss_rate::total     0.000034                       # mshr miss rate for ReadReq accesses
system.cpu.icache.ReadReq_avg_mshr_miss_latency::.cpu.inst 67761.339093                       # average ReadReq mshr miss latency
system.cpu.icache.ReadReq_avg_mshr_miss_latency::total 67761.339093                       # average ReadReq mshr miss latency
system.cpu.icache.tags.pwrStateResidencyTicks::UNDEFINED 110361718000                       # Cumulative time (in ticks) in various power states
system.cpu.icache.tags.tagsinuse           441.454414                       # Cycle average of tags in use
system.cpu.icache.tags.total_refs            27000057                       # Total number of references to valid blocks.
system.cpu.icache.tags.sampled_refs               926                       # Sample count of references to valid blocks.
system.cpu.icache.tags.avg_refs          29157.728942                       # Average number of references to valid blocks.
system.cpu.icache.tags.warmup_cycle            108000                       # Cycle when the warmup percentage was hit.
system.cpu.icache.tags.occ_blocks::.cpu.inst   441.454414                       # Average occupied blocks per requestor
system.cpu.icache.tags.occ_percent::.cpu.inst     0.431108                       # Average percentage of cache occupancy
system.cpu.icache.tags.occ_percent::total     0.431108                       # Average percentage of cache occupancy
system.cpu.icache.tags.occ_task_id_blocks::1024          442                       # Occupied blocks per task id
system.cpu.icache.tags.age_task_id_blocks_1024::1            3                       # Occupied blocks per task id
system.cpu.icache.tags.age_task_id_blocks_1024::4          439                       # Occupied blocks per task id
system.cpu.icache.tags.occ_task_id_percent::1024     0.431641                       # Percentage of cache occupancy per task id
system.cpu.icache.tags.tag_accesses          27000983                       # Number of tag accesses
system.cpu.icache.tags.data_accesses         27000983                       # Number of data accesses
system.cpu.dtb.walker.pwrStateResidencyTicks::UNDEFINED 110361718000                       # Cumulative time (in ticks) in various power states
system.cpu.dtb.stage2_mmu.stage2_tlb.walker.pwrStateResidencyTicks::UNDEFINED 110361718000                       # Cumulative time (in ticks) in various power states
system.cpu.dcache.pwrStateResidencyTicks::UNDEFINED 110361718000                       # Cumulative time (in ticks) in various power states
system.cpu.dcache.demand_hits::.cpu.data     35057121                       # number of demand (read+write) hits
system.cpu.dcache.demand_hits::total         35057121                       # number of demand (read+write) hits
system.cpu.dcache.overall_hits::.cpu.data     35060162                       # number of overall hits
system.cpu.dcache.overall_hits::total        35060162                       # number of overall hits
system.cpu.dcache.demand_misses::.cpu.data       113588                       # number of demand (read+write) misses
system.cpu.dcache.demand_misses::total         113588                       # number of demand (read+write) misses
system.cpu.dcache.overall_misses::.cpu.data       113676                       # number of overall misses
system.cpu.dcache.overall_misses::total        113676                       # number of overall misses
system.cpu.dcache.demand_miss_latency::.cpu.data   7901852000                       # number of demand (read+write) miss cycles
system.cpu.dcache.demand_miss_latency::total   7901852000                       # number of demand (read+write) miss cycles
system.cpu.dcache.overall_miss_latency::.cpu.data   7901852000                       # number of overall miss cycles
system.cpu.dcache.overall_miss_latency::total   7901852000                       # number of overall miss cycles
system.cpu.dcache.demand_accesses::.cpu.data     35170709                       # number of demand (read+write) accesses
system.cpu.dcache.demand_accesses::total     35170709                       # number of demand (read+write) accesses
system.cpu.dcache.overall_accesses::.cpu.data     35173838                       # number of overall (read+write) accesses
system.cpu.dcache.overall_accesses::total     35173838                       # number of overall (read+write) accesses
system.cpu.dcache.demand_miss_rate::.cpu.data     0.003230                       # miss rate for demand accesses
system.cpu.dcache.demand_miss_rate::total     0.003230                       # miss rate for demand accesses
system.cpu.dcache.overall_miss_rate::.cpu.data     0.003232                       # miss rate for overall accesses
system.cpu.dcache.overall_miss_rate::total     0.003232                       # miss rate for overall accesses
system.cpu.dcache.demand_avg_miss_latency::.cpu.data 69565.904849                       # average overall miss latency
system.cpu.dcache.demand_avg_miss_latency::total 69565.904849                       # average overall miss latency
system.cpu.dcache.overall_avg_miss_latency::.cpu.data 69512.051796                       # average overall miss latency
system.cpu.dcache.overall_avg_miss_latency::total 69512.051796                       # average overall miss latency
system.cpu.dcache.blocked_cycles::no_mshrs            0                       # number of cycles access was blocked
system.cpu.dcache.blocked_cycles::no_targets            0                       # number of cycles access was blocked
system.cpu.dcache.blocked::no_mshrs                 0                       # number of cycles access was blocked
system.cpu.dcache.blocked::no_targets               0                       # number of cycles access was blocked
system.cpu.dcache.avg_blocked_cycles::no_mshrs          nan                       # average number of cycles each access was blocked
system.cpu.dcache.avg_blocked_cycles::no_targets          nan                       # average number of cycles each access was blocked
system.cpu.dcache.writebacks::.writebacks        69540                       # number of writebacks
system.cpu.dcache.writebacks::total             69540                       # number of writebacks
system.cpu.dcache.demand_mshr_hits::.cpu.data        30810                       # number of demand (read+write) MSHR hits
system.cpu.dcache.demand_mshr_hits::total        30810                       # number of demand (read+write) MSHR hits
system.cpu.dcache.overall_mshr_hits::.cpu.data        30810                       # number of overall MSHR hits
system.cpu.dcache.overall_mshr_hits::total        30810                       # number of overall MSHR hits
system.cpu.dcache.demand_mshr_misses::.cpu.data        82778                       # number of demand (read+write) MSHR misses
system.cpu.dcache.demand_mshr_misses::total        82778                       # number of demand (read+write) MSHR misses
system.cpu.dcache.overall_mshr_misses::.cpu.data        82862                       # number of overall MSHR misses
system.cpu.dcache.overall_mshr_misses::total        82862                       # number of overall MSHR misses
system.cpu.dcache.demand_mshr_miss_latency::.cpu.data   6044818000                       # number of demand (read+write) MSHR miss cycles
system.cpu.dcache.demand_mshr_miss_latency::total   6044818000                       # number of demand (read+write) MSHR miss cycles
system.cpu.dcache.overall_mshr_miss_latency::.cpu.data   6048864000                       # number of overall MSHR miss cycles
system.cpu.dcache.overall_mshr_miss_latency::total   6048864000                       # number of overall MSHR miss cycles
system.cpu.dcache.demand_mshr_miss_rate::.cpu.data     0.002354                       # mshr miss rate for demand accesses
system.cpu.dcache.demand_mshr_miss_rate::total     0.002354                       # mshr miss rate for demand accesses
system.cpu.dcache.overall_mshr_miss_rate::.cpu.data     0.002356                       # mshr miss rate for overall accesses
system.cpu.dcache.overall_mshr_miss_rate::total     0.002356                       # mshr miss rate for overall accesses
system.cpu.dcache.demand_avg_mshr_miss_latency::.cpu.data 73024.450941                       # average overall mshr miss latency
system.cpu.dcache.demand_avg_mshr_miss_latency::total 73024.450941                       # average overall mshr miss latency
system.cpu.dcache.overall_avg_mshr_miss_latency::.cpu.data 72999.251768                       # average overall mshr miss latency
system.cpu.dcache.overall_avg_mshr_miss_latency::total 72999.251768                       # average overall mshr miss latency
system.cpu.dcache.replacements                  82350                       # number of replacements
system.cpu.dcache.ReadReq_hits::.cpu.data     20858435                       # number of ReadReq hits
system.cpu.dcache.ReadReq_hits::total        20858435                       # number of ReadReq hits
system.cpu.dcache.ReadReq_misses::.cpu.data        45288                       # number of ReadReq misses
system.cpu.dcache.ReadReq_misses::total         45288                       # number of ReadReq misses
system.cpu.dcache.ReadReq_miss_latency::.cpu.data   2120498000                       # number of ReadReq miss cycles
system.cpu.dcache.ReadReq_miss_latency::total   2120498000                       # number of ReadReq miss cycles
system.cpu.dcache.ReadReq_accesses::.cpu.data     20903723                       # number of ReadReq accesses(hits+misses)
system.cpu.dcache.ReadReq_accesses::total     20903723                       # number of ReadReq accesses(hits+misses)
system.cpu.dcache.ReadReq_miss_rate::.cpu.data     0.002167                       # miss rate for ReadReq accesses
system.cpu.dcache.ReadReq_miss_rate::total     0.002167                       # miss rate for ReadReq accesses
system.cpu.dcache.ReadReq_avg_miss_latency::.cpu.data 46822.513690                       # average ReadReq miss latency
system.cpu.dcache.ReadReq_avg_miss_latency::total 46822.513690                       # average ReadReq miss latency
system.cpu.dcache.ReadReq_mshr_hits::.cpu.data         8274                       # number of ReadReq MSHR hits
system.cpu.dcache.ReadReq_mshr_hits::total         8274                       # number of ReadReq MSHR hits
system.cpu.dcache.ReadReq_mshr_misses::.cpu.data        37014                       # number of ReadReq MSHR misses
system.cpu.dcache.ReadReq_mshr_misses::total        37014                       # number of ReadReq MSHR misses
system.cpu.dcache.ReadReq_mshr_miss_latency::.cpu.data   1709181000                       # number of ReadReq MSHR miss cycles
system.cpu.dcache.ReadReq_mshr_miss_latency::total   1709181000                       # number of ReadReq MSHR miss cycles
system.cpu.dcache.ReadReq_mshr_miss_rate::.cpu.data     0.001771                       # mshr miss rate for ReadReq accesses
system.cpu.dcache.ReadReq_mshr_miss_rate::total     0.001771                       # mshr miss rate for ReadReq accesses
system.cpu.dcache.ReadReq_avg_mshr_miss_latency::.cpu.data 46176.608851                       # average ReadReq mshr miss latency
system.cpu.dcache.ReadReq_avg_mshr_miss_latency::total 46176.608851                       # average ReadReq mshr miss latency
system.cpu.dcache.WriteReq_hits::.cpu.data     14198686                       # number of WriteReq hits
system.cpu.dcache.WriteReq_hits::total       14198686                       # number of WriteReq hits
system.cpu.dcache.WriteReq_misses::.cpu.data        68300                       # number of WriteReq misses
system.cpu.dcache.WriteReq_misses::total        68300                       # number of WriteReq misses
system.cpu.dcache.WriteReq_miss_latency::.cpu.data   5781354000                       # number of WriteReq miss cycles
system.cpu.dcache.WriteReq_miss_latency::total   5781354000                       # number of WriteReq miss cycles
system.cpu.dcache.WriteReq_accesses::.cpu.data     14266986                       # number of WriteReq accesses(hits+misses)
system.cpu.dcache.WriteReq_accesses::total     14266986                       # number of WriteReq accesses(hits+misses)
system.cpu.dcache.WriteReq_miss_rate::.cpu.data     0.004787                       # miss rate for WriteReq accesses
system.cpu.dcache.WriteReq_miss_rate::total     0.004787                       # miss rate for WriteReq accesses
system.cpu.dcache.WriteReq_avg_miss_latency::.cpu.data 84646.471449                       # average WriteReq miss latency
system.cpu.dcache.WriteReq_avg_miss_latency::total 84646.471449                       # average WriteReq miss latency
system.cpu.dcache.WriteReq_mshr_hits::.cpu.data        22536                       # number of WriteReq MSHR hits
system.cpu.dcache.WriteReq_mshr_hits::total        22536                       # number of WriteReq MSHR hits
system.cpu.dcache.WriteReq_mshr_misses::.cpu.data        45764                       # number of WriteReq MSHR misses
system.cpu.dcache.WriteReq_mshr_misses::total        45764                       # number of WriteReq MSHR misses
system.cpu.dcache.WriteReq_mshr_miss_latency::.cpu.data   4335637000                       # number of WriteReq MSHR miss cycles
system.cpu.dcache.WriteReq_mshr_miss_latency::total   4335637000                       # number of WriteReq MSHR miss cycles
system.cpu.dcache.WriteReq_mshr_miss_rate::.cpu.data     0.003208                       # mshr miss rate for WriteReq accesses
system.cpu.dcache.WriteReq_mshr_miss_rate::total     0.003208                       # mshr miss rate for WriteReq accesses
system.cpu.dcache.WriteReq_avg_mshr_miss_latency::.cpu.data 94739.030679                       # average WriteReq mshr miss latency
system.cpu.dcache.WriteReq_avg_mshr_miss_latency::total 94739.030679                       # average WriteReq mshr miss latency
system.cpu.dcache.SoftPFReq_hits::.cpu.data         3041                       # number of SoftPFReq hits
system.cpu.dcache.SoftPFReq_hits::total          3041                       # number of SoftPFReq hits
system.cpu.dcache.SoftPFReq_misses::.cpu.data           88                       # number of SoftPFReq misses
system.cpu.dcache.SoftPFReq_misses::total           88                       # number of SoftPFReq misses
system.cpu.dcache.SoftPFReq_accesses::.cpu.data         3129                       # number of SoftPFReq accesses(hits+misses)
system.cpu.dcache.SoftPFReq_accesses::total         3129                       # number of SoftPFReq accesses(hits+misses)
system.cpu.dcache.SoftPFReq_miss_rate::.cpu.data     0.028124                       # miss rate for SoftPFReq accesses
system.cpu.dcache.SoftPFReq_miss_rate::total     0.028124                       # miss rate for SoftPFReq accesses
system.cpu.dcache.SoftPFReq_mshr_misses::.cpu.data           84                       # number of SoftPFReq MSHR misses
system.cpu.dcache.SoftPFReq_mshr_misses::total           84                       # number of SoftPFReq MSHR misses
system.cpu.dcache.SoftPFReq_mshr_miss_latency::.cpu.data      4046000                       # number of SoftPFReq MSHR miss cycles
system.cpu.dcache.SoftPFReq_mshr_miss_latency::total      4046000                       # number of SoftPFReq MSHR miss cycles
system.cpu.dcache.SoftPFReq_mshr_miss_rate::.cpu.data     0.026846                       # mshr miss rate for SoftPFReq accesses
system.cpu.dcache.SoftPFReq_mshr_miss_rate::total     0.026846                       # mshr miss rate for SoftPFReq accesses
system.cpu.dcache.SoftPFReq_avg_mshr_miss_latency::.cpu.data 48166.666667                       # average SoftPFReq mshr miss latency
system.cpu.dcache.SoftPFReq_avg_mshr_miss_latency::total 48166.666667                       # average SoftPFReq mshr miss latency
system.cpu.dcache.LoadLockedReq_hits::.cpu.data        85610                       # number of LoadLockedReq hits
system.cpu.dcache.LoadLockedReq_hits::total        85610                       # number of LoadLockedReq hits
system.cpu.dcache.LoadLockedReq_accesses::.cpu.data        85610                       # number of LoadLockedReq accesses(hits+misses)
system.cpu.dcache.LoadLockedReq_accesses::total        85610                       # number of LoadLockedReq accesses(hits+misses)
system.cpu.dcache.StoreCondReq_hits::.cpu.data        85610                       # number of StoreCondReq hits
system.cpu.dcache.StoreCondReq_hits::total        85610                       # number of StoreCondReq hits
system.cpu.dcache.StoreCondReq_accesses::.cpu.data        85610                       # number of StoreCondReq accesses(hits+misses)
system.cpu.dcache.StoreCondReq_accesses::total        85610                       # number of StoreCondReq accesses(hits+misses)
system.cpu.dcache.tags.pwrStateResidencyTicks::UNDEFINED 110361718000                       # Cumulative time (in ticks) in various power states
system.cpu.dcache.tags.tagsinuse           510.950785                       # Cycle average of tags in use
system.cpu.dcache.tags.total_refs            35314244                       # Total number of references to valid blocks.
system.cpu.dcache.tags.sampled_refs             82862                       # Sample count of references to valid blocks.
system.cpu.dcache.tags.avg_refs            426.181410                       # Average number of references to valid blocks.
system.cpu.dcache.tags.warmup_cycle            223000                       # Cycle when the warmup percentage was hit.
system.cpu.dcache.tags.occ_blocks::.cpu.data   510.950785                       # Average occupied blocks per requestor
system.cpu.dcache.tags.occ_percent::.cpu.data     0.997951                       # Average percentage of cache occupancy
system.cpu.dcache.tags.occ_percent::total     0.997951                       # Average percentage of cache occupancy
system.cpu.dcache.tags.occ_task_id_blocks::1024          512                       # Occupied blocks per task id
system.cpu.dcache.tags.age_task_id_blocks_1024::0            4                       # Occupied blocks per task id
system.cpu.dcache.tags.age_task_id_blocks_1024::1           38                       # Occupied blocks per task id
system.cpu.dcache.tags.age_task_id_blocks_1024::2          247                       # Occupied blocks per task id
system.cpu.dcache.tags.age_task_id_blocks_1024::3          223                       # Occupied blocks per task id
system.cpu.dcache.tags.occ_task_id_percent::1024            1                       # Percentage of cache occupancy per task id
system.cpu.dcache.tags.tag_accesses          35427920                       # Number of tag accesses
system.cpu.dcache.tags.data_accesses         35427920                       # Number of data accesses
system.cpu.itb.walker.pwrStateResidencyTicks::UNDEFINED 110361718000                       # Cumulative time (in ticks) in various power states
system.cpu.itb.stage2_mmu.stage2_tlb.walker.pwrStateResidencyTicks::UNDEFINED 110361718000                       # Cumulative time (in ticks) in various power states

---------- End Simulation Statistics   ----------
