
---------- Begin Simulation Statistics ----------
final_tick                               123238518000                       # Number of ticks from beginning of simulation (restored from checkpoints and never reset)
host_inst_rate                                 354170                       # Simulator instruction rate (inst/s)
host_mem_usage                                 713116                       # Number of bytes of host memory used
host_op_rate                                   358145                       # Simulator op (including micro ops) rate (op/s)
host_seconds                                   282.35                       # Real time elapsed on the host
host_tick_rate                              436473429                       # Simulator tick rate (ticks/s)
sim_freq                                 1000000000000                       # Frequency of simulated ticks
sim_insts                                   100000000                       # Number of instructions simulated
sim_ops                                     101122354                       # Number of ops (including micro ops) simulated
sim_seconds                                  0.123239                       # Number of seconds simulated
sim_ticks                                123238518000                       # Number of ticks simulated
system.cpu.branchPred.BTBCorrect                    0                       # Number of correct BTB predictions (this stat may not work properly.
system.cpu.branchPred.BTBHitPct             84.823779                       # BTB Hit Percentage
system.cpu.branchPred.BTBHits                 4086562                       # Number of BTB hits
system.cpu.branchPred.BTBLookups              4817708                       # Number of BTB lookups
system.cpu.branchPred.RASInCorrect                 20                       # Number of incorrect RAS predictions.
system.cpu.branchPred.condIncorrect            345776                       # Number of conditional branches incorrect
system.cpu.branchPred.condPredicted           5102496                       # Number of conditional branches predicted
system.cpu.branchPred.indirectHits             102838                       # Number of indirect target hits.
system.cpu.branchPred.indirectLookups          675307                       # Number of indirect predictor lookups.
system.cpu.branchPred.indirectMisses           572469                       # Number of indirect misses.
system.cpu.branchPred.lookups                 6510573                       # Number of BP lookups
system.cpu.branchPred.usedRAS                  312626                       # Number of times the RAS was used to get a target.
system.cpu.branchPredindirectMispredicted        35007                       # Number of mispredicted indirect branches.
system.cpu.committedInsts                   100000000                       # Number of instructions committed
system.cpu.committedOps                     101122354                       # Number of ops (including micro ops) committed
system.cpu.cpi                               1.232385                       # CPI: cycles per instruction
system.cpu.discardedOps                        960457                       # Number of ops (including micro ops) which were discarded before commit
system.cpu.dtb.accesses                             0                       # DTB accesses
system.cpu.dtb.align_faults                         0                       # Number of TLB faults due to alignment restrictions
system.cpu.dtb.domain_faults                        0                       # Number of TLB faults due to domain restrictions
system.cpu.dtb.flush_entries                        0                       # Number of entries that have been flushed from TLB
system.cpu.dtb.flush_tlb                            0                       # Number of times complete TLB was flushed
system.cpu.dtb.flush_tlb_asid                       0                       # Number of times TLB was flushed by ASID
system.cpu.dtb.flush_tlb_mva                        0                       # Number of times TLB was flushed by MVA
system.cpu.dtb.flush_tlb_mva_asid                   0                       # Number of times TLB was flushed by MVA & ASID
system.cpu.dtb.hits                                 0                       # DTB hits
system.cpu.dtb.inst_accesses                        0                       # ITB inst accesses
system.cpu.dtb.inst_hits                            0                       # ITB inst hits
system.cpu.dtb.inst_misses                          0                       # ITB inst misses
system.cpu.dtb.misses                               0                       # DTB misses
system.cpu.dtb.perms_faults                         0                       # Number of TLB faults due to permissions restrictions
system.cpu.dtb.prefetch_faults                      0                       # Number of TLB faults due to prefetch
system.cpu.dtb.read_accesses                        0                       # DTB read accesses
system.cpu.dtb.read_hits                            0                       # DTB read hits
system.cpu.dtb.read_misses                          0                       # DTB read misses
system.cpu.dtb.stage2_mmu.stage2_tlb.accesses            0                       # DTB accesses
system.cpu.dtb.stage2_mmu.stage2_tlb.align_faults            0                       # Number of TLB faults due to alignment restrictions
system.cpu.dtb.stage2_mmu.stage2_tlb.domain_faults            0                       # Number of TLB faults due to domain restrictions
system.cpu.dtb.stage2_mmu.stage2_tlb.flush_entries            0                       # Number of entries that have been flushed from TLB
system.cpu.dtb.stage2_mmu.stage2_tlb.flush_tlb            0                       # Number of times complete TLB was flushed
system.cpu.dtb.stage2_mmu.stage2_tlb.flush_tlb_asid            0                       # Number of times TLB was flushed by ASID
system.cpu.dtb.stage2_mmu.stage2_tlb.flush_tlb_mva            0                       # Number of times TLB was flushed by MVA
system.cpu.dtb.stage2_mmu.stage2_tlb.flush_tlb_mva_asid            0                       # Number of times TLB was flushed by MVA & ASID
system.cpu.dtb.stage2_mmu.stage2_tlb.hits            0                       # DTB hits
system.cpu.dtb.stage2_mmu.stage2_tlb.inst_accesses            0                       # ITB inst accesses
system.cpu.dtb.stage2_mmu.stage2_tlb.inst_hits            0                       # ITB inst hits
system.cpu.dtb.stage2_mmu.stage2_tlb.inst_misses            0                       # ITB inst misses
system.cpu.dtb.stage2_mmu.stage2_tlb.misses            0                       # DTB misses
system.cpu.dtb.stage2_mmu.stage2_tlb.perms_faults            0                       # Number of TLB faults due to permissions restrictions
system.cpu.dtb.stage2_mmu.stage2_tlb.prefetch_faults            0                       # Number of TLB faults due to prefetch
system.cpu.dtb.stage2_mmu.stage2_tlb.read_accesses            0                       # DTB read accesses
system.cpu.dtb.stage2_mmu.stage2_tlb.read_hits            0                       # DTB read hits
system.cpu.dtb.stage2_mmu.stage2_tlb.read_misses            0                       # DTB read misses
system.cpu.dtb.stage2_mmu.stage2_tlb.walker.walkRequestOrigin_Requested::Data            0                       # Table walker requests started/completed, data/inst
system.cpu.dtb.stage2_mmu.stage2_tlb.walker.walkRequestOrigin_Requested::Inst            0                       # Table walker requests started/completed, data/inst
system.cpu.dtb.stage2_mmu.stage2_tlb.walker.walkRequestOrigin_Requested::total            0                       # Table walker requests started/completed, data/inst
system.cpu.dtb.stage2_mmu.stage2_tlb.walker.walkRequestOrigin_Completed::Data            0                       # Table walker requests started/completed, data/inst
system.cpu.dtb.stage2_mmu.stage2_tlb.walker.walkRequestOrigin_Completed::Inst            0                       # Table walker requests started/completed, data/inst
system.cpu.dtb.stage2_mmu.stage2_tlb.walker.walkRequestOrigin_Completed::total            0                       # Table walker requests started/completed, data/inst
system.cpu.dtb.stage2_mmu.stage2_tlb.walker.walkRequestOrigin::total            0                       # Table walker requests started/completed, data/inst
system.cpu.dtb.stage2_mmu.stage2_tlb.walker.walks            0                       # Table walker walks requested
system.cpu.dtb.stage2_mmu.stage2_tlb.write_accesses            0                       # DTB write accesses
system.cpu.dtb.stage2_mmu.stage2_tlb.write_hits            0                       # DTB write hits
system.cpu.dtb.stage2_mmu.stage2_tlb.write_misses            0                       # DTB write misses
system.cpu.dtb.walker.walkRequestOrigin_Requested::Data            0                       # Table walker requests started/completed, data/inst
system.cpu.dtb.walker.walkRequestOrigin_Requested::Inst            0                       # Table walker requests started/completed, data/inst
system.cpu.dtb.walker.walkRequestOrigin_Requested::total            0                       # Table walker requests started/completed, data/inst
system.cpu.dtb.walker.walkRequestOrigin_Completed::Data            0                       # Table walker requests started/completed, data/inst
system.cpu.dtb.walker.walkRequestOrigin_Completed::Inst            0                       # Table walker requests started/completed, data/inst
system.cpu.dtb.walker.walkRequestOrigin_Completed::total            0                       # Table walker requests started/completed, data/inst
system.cpu.dtb.walker.walkRequestOrigin::total            0                       # Table walker requests started/completed, data/inst
system.cpu.dtb.walker.walks                         0                       # Table walker walks requested
system.cpu.dtb.write_accesses                       0                       # DTB write accesses
system.cpu.dtb.write_hits                           0                       # DTB write hits
system.cpu.dtb.write_misses                         0                       # DTB write misses
system.cpu.fetch2.amo_instructions                  0                       # Number of memory atomic instructions successfully decoded
system.cpu.fetch2.fp_instructions                   0                       # Number of floating point instructions successfully decoded
system.cpu.fetch2.int_instructions           48893869                       # Number of integer instructions successfully decoded
system.cpu.fetch2.load_instructions          40554002                       # Number of memory load instructions successfully decoded
system.cpu.fetch2.store_instructions          6262931                       # Number of memory store instructions successfully decoded
system.cpu.fetch2.vec_instructions                  0                       # Number of SIMD instructions successfully decoded
system.cpu.idleCycles                         7023428                       # Total number of cycles that the object has spent stopped
system.cpu.ipc                               0.811435                       # IPC: instructions per cycle
system.cpu.itb.accesses                             0                       # DTB accesses
system.cpu.itb.align_faults                         0                       # Number of TLB faults due to alignment restrictions
system.cpu.itb.domain_faults                        0                       # Number of TLB faults due to domain restrictions
system.cpu.itb.flush_entries                        0                       # Number of entries that have been flushed from TLB
system.cpu.itb.flush_tlb                            0                       # Number of times complete TLB was flushed
system.cpu.itb.flush_tlb_asid                       0                       # Number of times TLB was flushed by ASID
system.cpu.itb.flush_tlb_mva                        0                       # Number of times TLB was flushed by MVA
system.cpu.itb.flush_tlb_mva_asid                   0                       # Number of times TLB was flushed by MVA & ASID
system.cpu.itb.hits                                 0                       # DTB hits
system.cpu.itb.inst_accesses                        0                       # ITB inst accesses
system.cpu.itb.inst_hits                            0                       # ITB inst hits
system.cpu.itb.inst_misses                          0                       # ITB inst misses
system.cpu.itb.misses                               0                       # DTB misses
system.cpu.itb.perms_faults                         0                       # Number of TLB faults due to permissions restrictions
system.cpu.itb.prefetch_faults                      0                       # Number of TLB faults due to prefetch
system.cpu.itb.read_accesses                        0                       # DTB read accesses
system.cpu.itb.read_hits                            0                       # DTB read hits
system.cpu.itb.read_misses                          0                       # DTB read misses
system.cpu.itb.stage2_mmu.stage2_tlb.accesses            0                       # DTB accesses
system.cpu.itb.stage2_mmu.stage2_tlb.align_faults            0                       # Number of TLB faults due to alignment restrictions
system.cpu.itb.stage2_mmu.stage2_tlb.domain_faults            0                       # Number of TLB faults due to domain restrictions
system.cpu.itb.stage2_mmu.stage2_tlb.flush_entries            0                       # Number of entries that have been flushed from TLB
system.cpu.itb.stage2_mmu.stage2_tlb.flush_tlb            0                       # Number of times complete TLB was flushed
system.cpu.itb.stage2_mmu.stage2_tlb.flush_tlb_asid            0                       # Number of times TLB was flushed by ASID
system.cpu.itb.stage2_mmu.stage2_tlb.flush_tlb_mva            0                       # Number of times TLB was flushed by MVA
system.cpu.itb.stage2_mmu.stage2_tlb.flush_tlb_mva_asid            0                       # Number of times TLB was flushed by MVA & ASID
system.cpu.itb.stage2_mmu.stage2_tlb.hits            0                       # DTB hits
system.cpu.itb.stage2_mmu.stage2_tlb.inst_accesses            0                       # ITB inst accesses
system.cpu.itb.stage2_mmu.stage2_tlb.inst_hits            0                       # ITB inst hits
system.cpu.itb.stage2_mmu.stage2_tlb.inst_misses            0                       # ITB inst misses
system.cpu.itb.stage2_mmu.stage2_tlb.misses            0                       # DTB misses
system.cpu.itb.stage2_mmu.stage2_tlb.perms_faults            0                       # Number of TLB faults due to permissions restrictions
system.cpu.itb.stage2_mmu.stage2_tlb.prefetch_faults            0                       # Number of TLB faults due to prefetch
system.cpu.itb.stage2_mmu.stage2_tlb.read_accesses            0                       # DTB read accesses
system.cpu.itb.stage2_mmu.stage2_tlb.read_hits            0                       # DTB read hits
system.cpu.itb.stage2_mmu.stage2_tlb.read_misses            0                       # DTB read misses
system.cpu.itb.stage2_mmu.stage2_tlb.walker.walkRequestOrigin_Requested::Data            0                       # Table walker requests started/completed, data/inst
system.cpu.itb.stage2_mmu.stage2_tlb.walker.walkRequestOrigin_Requested::Inst            0                       # Table walker requests started/completed, data/inst
system.cpu.itb.stage2_mmu.stage2_tlb.walker.walkRequestOrigin_Requested::total            0                       # Table walker requests started/completed, data/inst
system.cpu.itb.stage2_mmu.stage2_tlb.walker.walkRequestOrigin_Completed::Data            0                       # Table walker requests started/completed, data/inst
system.cpu.itb.stage2_mmu.stage2_tlb.walker.walkRequestOrigin_Completed::Inst            0                       # Table walker requests started/completed, data/inst
system.cpu.itb.stage2_mmu.stage2_tlb.walker.walkRequestOrigin_Completed::total            0                       # Table walker requests started/completed, data/inst
system.cpu.itb.stage2_mmu.stage2_tlb.walker.walkRequestOrigin::total            0                       # Table walker requests started/completed, data/inst
system.cpu.itb.stage2_mmu.stage2_tlb.walker.walks            0                       # Table walker walks requested
system.cpu.itb.stage2_mmu.stage2_tlb.write_accesses            0                       # DTB write accesses
system.cpu.itb.stage2_mmu.stage2_tlb.write_hits            0                       # DTB write hits
system.cpu.itb.stage2_mmu.stage2_tlb.write_misses            0                       # DTB write misses
system.cpu.itb.walker.walkRequestOrigin_Requested::Data            0                       # Table walker requests started/completed, data/inst
system.cpu.itb.walker.walkRequestOrigin_Requested::Inst            0                       # Table walker requests started/completed, data/inst
system.cpu.itb.walker.walkRequestOrigin_Requested::total            0                       # Table walker requests started/completed, data/inst
system.cpu.itb.walker.walkRequestOrigin_Completed::Data            0                       # Table walker requests started/completed, data/inst
system.cpu.itb.walker.walkRequestOrigin_Completed::Inst            0                       # Table walker requests started/completed, data/inst
system.cpu.itb.walker.walkRequestOrigin_Completed::total            0                       # Table walker requests started/completed, data/inst
system.cpu.itb.walker.walkRequestOrigin::total            0                       # Table walker requests started/completed, data/inst
system.cpu.itb.walker.walks                         0                       # Table walker walks requested
system.cpu.itb.write_accesses                       0                       # DTB write accesses
system.cpu.itb.write_hits                           0                       # DTB write hits
system.cpu.itb.write_misses                         0                       # DTB write misses
system.cpu.numCycles                        123238518                       # number of cpu cycles simulated
system.cpu.numFetchSuspends                         0                       # Number of times Execute suspended instruction fetching
system.cpu.numWorkItemsCompleted                    0                       # number of work items this cpu completed
system.cpu.numWorkItemsStarted                      0                       # number of work items this cpu started
system.cpu.op_class_0::No_OpClass                   0      0.00%      0.00% # Class of committed instruction
system.cpu.op_class_0::IntAlu                55111288     54.50%     54.50% # Class of committed instruction
system.cpu.op_class_0::IntMult                 167845      0.17%     54.67% # Class of committed instruction
system.cpu.op_class_0::IntDiv                       0      0.00%     54.67% # Class of committed instruction
system.cpu.op_class_0::FloatAdd                     0      0.00%     54.67% # Class of committed instruction
system.cpu.op_class_0::FloatCmp                     0      0.00%     54.67% # Class of committed instruction
system.cpu.op_class_0::FloatCvt                     0      0.00%     54.67% # Class of committed instruction
system.cpu.op_class_0::FloatMult                    0      0.00%     54.67% # Class of committed instruction
system.cpu.op_class_0::FloatMultAcc                 0      0.00%     54.67% # Class of committed instruction
system.cpu.op_class_0::FloatDiv                     0      0.00%     54.67% # Class of committed instruction
system.cpu.op_class_0::FloatMisc                    0      0.00%     54.67% # Class of committed instruction
system.cpu.op_class_0::FloatSqrt                    0      0.00%     54.67% # Class of committed instruction
system.cpu.op_class_0::SimdAdd                    380      0.00%     54.67% # Class of committed instruction
system.cpu.op_class_0::SimdAddAcc                   0      0.00%     54.67% # Class of committed instruction
system.cpu.op_class_0::SimdAlu                    470      0.00%     54.67% # Class of committed instruction
system.cpu.op_class_0::SimdCmp                    382      0.00%     54.67% # Class of committed instruction
system.cpu.op_class_0::SimdCvt                      0      0.00%     54.67% # Class of committed instruction
system.cpu.op_class_0::SimdMisc                    53      0.00%     54.67% # Class of committed instruction
system.cpu.op_class_0::SimdMult                     0      0.00%     54.67% # Class of committed instruction
system.cpu.op_class_0::SimdMultAcc                  0      0.00%     54.67% # Class of committed instruction
system.cpu.op_class_0::SimdShift                    0      0.00%     54.67% # Class of committed instruction
system.cpu.op_class_0::SimdShiftAcc                 0      0.00%     54.67% # Class of committed instruction
system.cpu.op_class_0::SimdDiv                      0      0.00%     54.67% # Class of committed instruction
system.cpu.op_class_0::SimdSqrt                     0      0.00%     54.67% # Class of committed instruction
system.cpu.op_class_0::SimdFloatAdd            282752      0.28%     54.95% # Class of committed instruction
system.cpu.op_class_0::SimdFloatAlu                 0      0.00%     54.95% # Class of committed instruction
system.cpu.op_class_0::SimdFloatCmp            266991      0.26%     55.21% # Class of committed instruction
system.cpu.op_class_0::SimdFloatCvt            163440      0.16%     55.37% # Class of committed instruction
system.cpu.op_class_0::SimdFloatDiv             54308      0.05%     55.43% # Class of committed instruction
system.cpu.op_class_0::SimdFloatMisc           505318      0.50%     55.93% # Class of committed instruction
system.cpu.op_class_0::SimdFloatMult            36718      0.04%     55.96% # Class of committed instruction
system.cpu.op_class_0::SimdFloatMultAcc         10949      0.01%     55.97% # Class of committed instruction
system.cpu.op_class_0::SimdFloatSqrt                0      0.00%     55.97% # Class of committed instruction
system.cpu.op_class_0::SimdReduceAdd                0      0.00%     55.97% # Class of committed instruction
system.cpu.op_class_0::SimdReduceAlu                0      0.00%     55.97% # Class of committed instruction
system.cpu.op_class_0::SimdReduceCmp                0      0.00%     55.97% # Class of committed instruction
system.cpu.op_class_0::SimdFloatReduceAdd            0      0.00%     55.97% # Class of committed instruction
system.cpu.op_class_0::SimdFloatReduceCmp            0      0.00%     55.97% # Class of committed instruction
system.cpu.op_class_0::SimdAes                      0      0.00%     55.97% # Class of committed instruction
system.cpu.op_class_0::SimdAesMix                   0      0.00%     55.97% # Class of committed instruction
system.cpu.op_class_0::SimdSha1Hash                 0      0.00%     55.97% # Class of committed instruction
system.cpu.op_class_0::SimdSha1Hash2                0      0.00%     55.97% # Class of committed instruction
system.cpu.op_class_0::SimdSha256Hash               0      0.00%     55.97% # Class of committed instruction
system.cpu.op_class_0::SimdSha256Hash2              0      0.00%     55.97% # Class of committed instruction
system.cpu.op_class_0::SimdShaSigma2                0      0.00%     55.97% # Class of committed instruction
system.cpu.op_class_0::SimdShaSigma3                0      0.00%     55.97% # Class of committed instruction
system.cpu.op_class_0::SimdPredAlu                  0      0.00%     55.97% # Class of committed instruction
system.cpu.op_class_0::MemRead               38138372     37.72%     93.69% # Class of committed instruction
system.cpu.op_class_0::MemWrite               6383088      6.31%    100.00% # Class of committed instruction
system.cpu.op_class_0::FloatMemRead                 0      0.00%    100.00% # Class of committed instruction
system.cpu.op_class_0::FloatMemWrite                0      0.00%    100.00% # Class of committed instruction
system.cpu.op_class_0::IprAccess                    0      0.00%    100.00% # Class of committed instruction
system.cpu.op_class_0::InstPrefetch                 0      0.00%    100.00% # Class of committed instruction
system.cpu.op_class_0::total                101122354                       # Class of committed instruction
system.cpu.tickCycles                       116215090                       # Number of cycles that the object actually ticked
system.cpu.workload.numSyscalls                    33                       # Number of system calls
system.membus.snoop_filter.hit_multi_requests            0                       # Number of requests hitting in the snoop filter with multiple (>1) holders of the requested data.
system.membus.snoop_filter.hit_multi_snoops            0                       # Number of snoops hitting in the snoop filter with multiple (>1) holders of the requested data.
system.membus.snoop_filter.hit_single_requests          360                       # Number of requests hitting in the snoop filter with a single holder of the requested data.
system.membus.snoop_filter.hit_single_snoops            0                       # Number of snoops hitting in the snoop filter with a single holder of the requested data.
system.membus.snoop_filter.tot_requests          6282                       # Total number of requests made to the snoop filter.
system.membus.snoop_filter.tot_snoops               0                       # Total number of snoops made to the snoop filter.
system.tol2bus.snoop_filter.hit_multi_requests         1731                       # Number of requests hitting in the snoop filter with multiple (>1) holders of the requested data.
system.tol2bus.snoop_filter.hit_multi_snoops           12                       # Number of snoops hitting in the snoop filter with multiple (>1) holders of the requested data.
system.tol2bus.snoop_filter.hit_single_requests       239162                       # Number of requests hitting in the snoop filter with a single holder of the requested data.
system.tol2bus.snoop_filter.hit_single_snoops          321                       # Number of snoops hitting in the snoop filter with a single holder of the requested data.
system.tol2bus.snoop_filter.tot_requests       479657                       # Total number of requests made to the snoop filter.
system.tol2bus.snoop_filter.tot_snoops            333                       # Total number of snoops made to the snoop filter.
system.membus.pwrStateResidencyTicks::UNDEFINED 123238518000                       # Cumulative time (in ticks) in various power states
system.membus.trans_dist::ReadResp               2280                       # Transaction distribution
system.membus.trans_dist::WritebackDirty           68                       # Transaction distribution
system.membus.trans_dist::CleanEvict              260                       # Transaction distribution
system.membus.trans_dist::ReadExReq              3674                       # Transaction distribution
system.membus.trans_dist::ReadExResp             3674                       # Transaction distribution
system.membus.trans_dist::ReadSharedReq          2280                       # Transaction distribution
system.membus.pkt_count_system.l2.mem_side::system.mem_ctrls.port        12236                       # Packet count per connected master and slave (bytes)
system.membus.pkt_count::total                  12236                       # Packet count per connected master and slave (bytes)
system.membus.pkt_size_system.l2.mem_side::system.mem_ctrls.port       385408                       # Cumulative packet size per connected master and slave (bytes)
system.membus.pkt_size::total                  385408                       # Cumulative packet size per connected master and slave (bytes)
system.membus.snoops                                0                       # Total snoops (count)
system.membus.snoopTraffic                          0                       # Total snoop traffic (bytes)
system.membus.snoop_fanout::samples              5954                       # Request fanout histogram
system.membus.snoop_fanout::mean                    0                       # Request fanout histogram
system.membus.snoop_fanout::stdev                   0                       # Request fanout histogram
system.membus.snoop_fanout::underflows              0      0.00%      0.00% # Request fanout histogram
system.membus.snoop_fanout::0                    5954    100.00%    100.00% # Request fanout histogram
system.membus.snoop_fanout::1                       0      0.00%    100.00% # Request fanout histogram
system.membus.snoop_fanout::overflows               0      0.00%    100.00% # Request fanout histogram
system.membus.snoop_fanout::min_value               0                       # Request fanout histogram
system.membus.snoop_fanout::max_value               0                       # Request fanout histogram
system.membus.snoop_fanout::total                5954                       # Request fanout histogram
system.membus.respLayer1.occupancy           31756250                       # Layer occupancy (ticks)
system.membus.respLayer1.utilization              0.0                       # Layer utilization (%)
system.membus.reqLayer0.occupancy             6554000                       # Layer occupancy (ticks)
system.membus.reqLayer0.utilization               0.0                       # Layer utilization (%)
system.tol2bus.pwrStateResidencyTicks::UNDEFINED 123238518000                       # Cumulative time (in ticks) in various power states
system.tol2bus.trans_dist::ReadResp            152522                       # Transaction distribution
system.tol2bus.trans_dist::WritebackDirty       233648                       # Transaction distribution
system.tol2bus.trans_dist::WritebackClean         1500                       # Transaction distribution
system.tol2bus.trans_dist::CleanEvict            4644                       # Transaction distribution
system.tol2bus.trans_dist::ReadExReq            87977                       # Transaction distribution
system.tol2bus.trans_dist::ReadExResp           87977                       # Transaction distribution
system.tol2bus.trans_dist::ReadCleanReq          2329                       # Transaction distribution
system.tol2bus.trans_dist::ReadSharedReq       150193                       # Transaction distribution
system.tol2bus.pkt_count_system.cpu.icache.mem_side::system.l2.cpu_side         6158                       # Packet count per connected master and slave (bytes)
system.tol2bus.pkt_count_system.cpu.dcache.mem_side::system.l2.cpu_side       713998                       # Packet count per connected master and slave (bytes)
system.tol2bus.pkt_count::total                720156                       # Packet count per connected master and slave (bytes)
system.tol2bus.pkt_size_system.cpu.icache.mem_side::system.l2.cpu_side       245056                       # Cumulative packet size per connected master and slave (bytes)
system.tol2bus.pkt_size_system.cpu.dcache.mem_side::system.l2.cpu_side     30192000                       # Cumulative packet size per connected master and slave (bytes)
system.tol2bus.pkt_size::total               30437056                       # Cumulative packet size per connected master and slave (bytes)
system.tol2bus.snoops                             634                       # Total snoops (count)
system.tol2bus.snoopTraffic                      4352                       # Total snoop traffic (bytes)
system.tol2bus.snoop_fanout::samples           241133                       # Request fanout histogram
system.tol2bus.snoop_fanout::mean            0.008626                       # Request fanout histogram
system.tol2bus.snoop_fanout::stdev           0.093011                       # Request fanout histogram
system.tol2bus.snoop_fanout::underflows             0      0.00%      0.00% # Request fanout histogram
system.tol2bus.snoop_fanout::0                 239065     99.14%     99.14% # Request fanout histogram
system.tol2bus.snoop_fanout::1                   2056      0.85%    100.00% # Request fanout histogram
system.tol2bus.snoop_fanout::2                     12      0.00%    100.00% # Request fanout histogram
system.tol2bus.snoop_fanout::overflows              0      0.00%    100.00% # Request fanout histogram
system.tol2bus.snoop_fanout::min_value              0                       # Request fanout histogram
system.tol2bus.snoop_fanout::max_value              2                       # Request fanout histogram
system.tol2bus.snoop_fanout::total             241133                       # Request fanout histogram
system.tol2bus.reqLayer0.occupancy          949817000                       # Layer occupancy (ticks)
system.tol2bus.reqLayer0.utilization              0.8                       # Layer utilization (%)
system.tol2bus.respLayer1.occupancy         714518991                       # Layer occupancy (ticks)
system.tol2bus.respLayer1.utilization             0.6                       # Layer utilization (%)
system.tol2bus.respLayer0.occupancy           6988998                       # Layer occupancy (ticks)
system.tol2bus.respLayer0.utilization             0.0                       # Layer utilization (%)
system.voltage_domain.voltage                       1                       # Voltage in Volts
system.clk_domain.clock                          1000                       # Clock period in ticks
system.l2.pwrStateResidencyTicks::UNDEFINED 123238518000                       # Cumulative time (in ticks) in various power states
system.l2.demand_hits::.cpu.inst                 1004                       # number of demand (read+write) hits
system.l2.demand_hits::.cpu.data               233530                       # number of demand (read+write) hits
system.l2.demand_hits::total                   234534                       # number of demand (read+write) hits
system.l2.overall_hits::.cpu.inst                1004                       # number of overall hits
system.l2.overall_hits::.cpu.data              233530                       # number of overall hits
system.l2.overall_hits::total                  234534                       # number of overall hits
system.l2.demand_misses::.cpu.inst               1325                       # number of demand (read+write) misses
system.l2.demand_misses::.cpu.data               4640                       # number of demand (read+write) misses
system.l2.demand_misses::total                   5965                       # number of demand (read+write) misses
system.l2.overall_misses::.cpu.inst              1325                       # number of overall misses
system.l2.overall_misses::.cpu.data              4640                       # number of overall misses
system.l2.overall_misses::total                  5965                       # number of overall misses
system.l2.demand_miss_latency::.cpu.inst    130043000                       # number of demand (read+write) miss cycles
system.l2.demand_miss_latency::.cpu.data    463646000                       # number of demand (read+write) miss cycles
system.l2.demand_miss_latency::total        593689000                       # number of demand (read+write) miss cycles
system.l2.overall_miss_latency::.cpu.inst    130043000                       # number of overall miss cycles
system.l2.overall_miss_latency::.cpu.data    463646000                       # number of overall miss cycles
system.l2.overall_miss_latency::total       593689000                       # number of overall miss cycles
system.l2.demand_accesses::.cpu.inst             2329                       # number of demand (read+write) accesses
system.l2.demand_accesses::.cpu.data           238170                       # number of demand (read+write) accesses
system.l2.demand_accesses::total               240499                       # number of demand (read+write) accesses
system.l2.overall_accesses::.cpu.inst            2329                       # number of overall (read+write) accesses
system.l2.overall_accesses::.cpu.data          238170                       # number of overall (read+write) accesses
system.l2.overall_accesses::total              240499                       # number of overall (read+write) accesses
system.l2.demand_miss_rate::.cpu.inst        0.568914                       # miss rate for demand accesses
system.l2.demand_miss_rate::.cpu.data        0.019482                       # miss rate for demand accesses
system.l2.demand_miss_rate::total            0.024803                       # miss rate for demand accesses
system.l2.overall_miss_rate::.cpu.inst       0.568914                       # miss rate for overall accesses
system.l2.overall_miss_rate::.cpu.data       0.019482                       # miss rate for overall accesses
system.l2.overall_miss_rate::total           0.024803                       # miss rate for overall accesses
system.l2.demand_avg_miss_latency::.cpu.inst 98145.660377                       # average overall miss latency
system.l2.demand_avg_miss_latency::.cpu.data 99923.706897                       # average overall miss latency
system.l2.demand_avg_miss_latency::total 99528.751048                       # average overall miss latency
system.l2.overall_avg_miss_latency::.cpu.inst 98145.660377                       # average overall miss latency
system.l2.overall_avg_miss_latency::.cpu.data 99923.706897                       # average overall miss latency
system.l2.overall_avg_miss_latency::total 99528.751048                       # average overall miss latency
system.l2.blocked_cycles::no_mshrs                  0                       # number of cycles access was blocked
system.l2.blocked_cycles::no_targets                0                       # number of cycles access was blocked
system.l2.blocked::no_mshrs                         0                       # number of cycles access was blocked
system.l2.blocked::no_targets                       0                       # number of cycles access was blocked
system.l2.avg_blocked_cycles::no_mshrs            nan                       # average number of cycles each access was blocked
system.l2.avg_blocked_cycles::no_targets          nan                       # average number of cycles each access was blocked
system.l2.writebacks::.writebacks                  68                       # number of writebacks
system.l2.writebacks::total                        68                       # number of writebacks
system.l2.demand_mshr_hits::.cpu.inst               2                       # number of demand (read+write) MSHR hits
system.l2.demand_mshr_hits::.cpu.data               9                       # number of demand (read+write) MSHR hits
system.l2.demand_mshr_hits::total                  11                       # number of demand (read+write) MSHR hits
system.l2.overall_mshr_hits::.cpu.inst              2                       # number of overall MSHR hits
system.l2.overall_mshr_hits::.cpu.data              9                       # number of overall MSHR hits
system.l2.overall_mshr_hits::total                 11                       # number of overall MSHR hits
system.l2.demand_mshr_misses::.cpu.inst          1323                       # number of demand (read+write) MSHR misses
system.l2.demand_mshr_misses::.cpu.data          4631                       # number of demand (read+write) MSHR misses
system.l2.demand_mshr_misses::total              5954                       # number of demand (read+write) MSHR misses
system.l2.overall_mshr_misses::.cpu.inst         1323                       # number of overall MSHR misses
system.l2.overall_mshr_misses::.cpu.data         4631                       # number of overall MSHR misses
system.l2.overall_mshr_misses::total             5954                       # number of overall MSHR misses
system.l2.demand_mshr_miss_latency::.cpu.inst    103420000                       # number of demand (read+write) MSHR miss cycles
system.l2.demand_mshr_miss_latency::.cpu.data    370313000                       # number of demand (read+write) MSHR miss cycles
system.l2.demand_mshr_miss_latency::total    473733000                       # number of demand (read+write) MSHR miss cycles
system.l2.overall_mshr_miss_latency::.cpu.inst    103420000                       # number of overall MSHR miss cycles
system.l2.overall_mshr_miss_latency::.cpu.data    370313000                       # number of overall MSHR miss cycles
system.l2.overall_mshr_miss_latency::total    473733000                       # number of overall MSHR miss cycles
system.l2.demand_mshr_miss_rate::.cpu.inst     0.568055                       # mshr miss rate for demand accesses
system.l2.demand_mshr_miss_rate::.cpu.data     0.019444                       # mshr miss rate for demand accesses
system.l2.demand_mshr_miss_rate::total       0.024757                       # mshr miss rate for demand accesses
system.l2.overall_mshr_miss_rate::.cpu.inst     0.568055                       # mshr miss rate for overall accesses
system.l2.overall_mshr_miss_rate::.cpu.data     0.019444                       # mshr miss rate for overall accesses
system.l2.overall_mshr_miss_rate::total      0.024757                       # mshr miss rate for overall accesses
system.l2.demand_avg_mshr_miss_latency::.cpu.inst 78170.823885                       # average overall mshr miss latency
system.l2.demand_avg_mshr_miss_latency::.cpu.data 79963.938674                       # average overall mshr miss latency
system.l2.demand_avg_mshr_miss_latency::total 79565.502183                       # average overall mshr miss latency
system.l2.overall_avg_mshr_miss_latency::.cpu.inst 78170.823885                       # average overall mshr miss latency
system.l2.overall_avg_mshr_miss_latency::.cpu.data 79963.938674                       # average overall mshr miss latency
system.l2.overall_avg_mshr_miss_latency::total 79565.502183                       # average overall mshr miss latency
system.l2.replacements                            634                       # number of replacements
system.l2.WritebackDirty_hits::.writebacks       233580                       # number of WritebackDirty hits
system.l2.WritebackDirty_hits::total           233580                       # number of WritebackDirty hits
system.l2.WritebackDirty_accesses::.writebacks       233580                       # number of WritebackDirty accesses(hits+misses)
system.l2.WritebackDirty_accesses::total       233580                       # number of WritebackDirty accesses(hits+misses)
system.l2.WritebackClean_hits::.writebacks         1453                       # number of WritebackClean hits
system.l2.WritebackClean_hits::total             1453                       # number of WritebackClean hits
system.l2.WritebackClean_accesses::.writebacks         1453                       # number of WritebackClean accesses(hits+misses)
system.l2.WritebackClean_accesses::total         1453                       # number of WritebackClean accesses(hits+misses)
system.l2.CleanEvict_mshr_misses::.writebacks           27                       # number of CleanEvict MSHR misses
system.l2.CleanEvict_mshr_misses::total            27                       # number of CleanEvict MSHR misses
system.l2.CleanEvict_mshr_miss_rate::.writebacks          inf                       # mshr miss rate for CleanEvict accesses
system.l2.CleanEvict_mshr_miss_rate::total          inf                       # mshr miss rate for CleanEvict accesses
system.l2.ReadExReq_hits::.cpu.data             84303                       # number of ReadExReq hits
system.l2.ReadExReq_hits::total                 84303                       # number of ReadExReq hits
system.l2.ReadExReq_misses::.cpu.data            3674                       # number of ReadExReq misses
system.l2.ReadExReq_misses::total                3674                       # number of ReadExReq misses
system.l2.ReadExReq_miss_latency::.cpu.data    367313000                       # number of ReadExReq miss cycles
system.l2.ReadExReq_miss_latency::total     367313000                       # number of ReadExReq miss cycles
system.l2.ReadExReq_accesses::.cpu.data         87977                       # number of ReadExReq accesses(hits+misses)
system.l2.ReadExReq_accesses::total             87977                       # number of ReadExReq accesses(hits+misses)
system.l2.ReadExReq_miss_rate::.cpu.data     0.041761                       # miss rate for ReadExReq accesses
system.l2.ReadExReq_miss_rate::total         0.041761                       # miss rate for ReadExReq accesses
system.l2.ReadExReq_avg_miss_latency::.cpu.data 99976.320087                       # average ReadExReq miss latency
system.l2.ReadExReq_avg_miss_latency::total 99976.320087                       # average ReadExReq miss latency
system.l2.ReadExReq_mshr_misses::.cpu.data         3674                       # number of ReadExReq MSHR misses
system.l2.ReadExReq_mshr_misses::total           3674                       # number of ReadExReq MSHR misses
system.l2.ReadExReq_mshr_miss_latency::.cpu.data    293833000                       # number of ReadExReq MSHR miss cycles
system.l2.ReadExReq_mshr_miss_latency::total    293833000                       # number of ReadExReq MSHR miss cycles
system.l2.ReadExReq_mshr_miss_rate::.cpu.data     0.041761                       # mshr miss rate for ReadExReq accesses
system.l2.ReadExReq_mshr_miss_rate::total     0.041761                       # mshr miss rate for ReadExReq accesses
system.l2.ReadExReq_avg_mshr_miss_latency::.cpu.data 79976.320087                       # average ReadExReq mshr miss latency
system.l2.ReadExReq_avg_mshr_miss_latency::total 79976.320087                       # average ReadExReq mshr miss latency
system.l2.ReadCleanReq_hits::.cpu.inst           1004                       # number of ReadCleanReq hits
system.l2.ReadCleanReq_hits::total               1004                       # number of ReadCleanReq hits
system.l2.ReadCleanReq_misses::.cpu.inst         1325                       # number of ReadCleanReq misses
system.l2.ReadCleanReq_misses::total             1325                       # number of ReadCleanReq misses
system.l2.ReadCleanReq_miss_latency::.cpu.inst    130043000                       # number of ReadCleanReq miss cycles
system.l2.ReadCleanReq_miss_latency::total    130043000                       # number of ReadCleanReq miss cycles
system.l2.ReadCleanReq_accesses::.cpu.inst         2329                       # number of ReadCleanReq accesses(hits+misses)
system.l2.ReadCleanReq_accesses::total           2329                       # number of ReadCleanReq accesses(hits+misses)
system.l2.ReadCleanReq_miss_rate::.cpu.inst     0.568914                       # miss rate for ReadCleanReq accesses
system.l2.ReadCleanReq_miss_rate::total      0.568914                       # miss rate for ReadCleanReq accesses
system.l2.ReadCleanReq_avg_miss_latency::.cpu.inst 98145.660377                       # average ReadCleanReq miss latency
system.l2.ReadCleanReq_avg_miss_latency::total 98145.660377                       # average ReadCleanReq miss latency
system.l2.ReadCleanReq_mshr_hits::.cpu.inst            2                       # number of ReadCleanReq MSHR hits
system.l2.ReadCleanReq_mshr_hits::total             2                       # number of ReadCleanReq MSHR hits
system.l2.ReadCleanReq_mshr_misses::.cpu.inst         1323                       # number of ReadCleanReq MSHR misses
system.l2.ReadCleanReq_mshr_misses::total         1323                       # number of ReadCleanReq MSHR misses
system.l2.ReadCleanReq_mshr_miss_latency::.cpu.inst    103420000                       # number of ReadCleanReq MSHR miss cycles
system.l2.ReadCleanReq_mshr_miss_latency::total    103420000                       # number of ReadCleanReq MSHR miss cycles
system.l2.ReadCleanReq_mshr_miss_rate::.cpu.inst     0.568055                       # mshr miss rate for ReadCleanReq accesses
system.l2.ReadCleanReq_mshr_miss_rate::total     0.568055                       # mshr miss rate for ReadCleanReq accesses
system.l2.ReadCleanReq_avg_mshr_miss_latency::.cpu.inst 78170.823885                       # average ReadCleanReq mshr miss latency
system.l2.ReadCleanReq_avg_mshr_miss_latency::total 78170.823885                       # average ReadCleanReq mshr miss latency
system.l2.ReadSharedReq_hits::.cpu.data        149227                       # number of ReadSharedReq hits
system.l2.ReadSharedReq_hits::total            149227                       # number of ReadSharedReq hits
system.l2.ReadSharedReq_misses::.cpu.data          966                       # number of ReadSharedReq misses
system.l2.ReadSharedReq_misses::total             966                       # number of ReadSharedReq misses
system.l2.ReadSharedReq_miss_latency::.cpu.data     96333000                       # number of ReadSharedReq miss cycles
system.l2.ReadSharedReq_miss_latency::total     96333000                       # number of ReadSharedReq miss cycles
system.l2.ReadSharedReq_accesses::.cpu.data       150193                       # number of ReadSharedReq accesses(hits+misses)
system.l2.ReadSharedReq_accesses::total        150193                       # number of ReadSharedReq accesses(hits+misses)
system.l2.ReadSharedReq_miss_rate::.cpu.data     0.006432                       # miss rate for ReadSharedReq accesses
system.l2.ReadSharedReq_miss_rate::total     0.006432                       # miss rate for ReadSharedReq accesses
system.l2.ReadSharedReq_avg_miss_latency::.cpu.data 99723.602484                       # average ReadSharedReq miss latency
system.l2.ReadSharedReq_avg_miss_latency::total 99723.602484                       # average ReadSharedReq miss latency
system.l2.ReadSharedReq_mshr_hits::.cpu.data            9                       # number of ReadSharedReq MSHR hits
system.l2.ReadSharedReq_mshr_hits::total            9                       # number of ReadSharedReq MSHR hits
system.l2.ReadSharedReq_mshr_misses::.cpu.data          957                       # number of ReadSharedReq MSHR misses
system.l2.ReadSharedReq_mshr_misses::total          957                       # number of ReadSharedReq MSHR misses
system.l2.ReadSharedReq_mshr_miss_latency::.cpu.data     76480000                       # number of ReadSharedReq MSHR miss cycles
system.l2.ReadSharedReq_mshr_miss_latency::total     76480000                       # number of ReadSharedReq MSHR miss cycles
system.l2.ReadSharedReq_mshr_miss_rate::.cpu.data     0.006372                       # mshr miss rate for ReadSharedReq accesses
system.l2.ReadSharedReq_mshr_miss_rate::total     0.006372                       # mshr miss rate for ReadSharedReq accesses
system.l2.ReadSharedReq_avg_mshr_miss_latency::.cpu.data 79916.405434                       # average ReadSharedReq mshr miss latency
system.l2.ReadSharedReq_avg_mshr_miss_latency::total 79916.405434                       # average ReadSharedReq mshr miss latency
system.l2.tags.pwrStateResidencyTicks::UNDEFINED 123238518000                       # Cumulative time (in ticks) in various power states
system.l2.tags.tagsinuse                  5216.565695                       # Cycle average of tags in use
system.l2.tags.total_refs                      477888                       # Total number of references to valid blocks.
system.l2.tags.sampled_refs                      6046                       # Sample count of references to valid blocks.
system.l2.tags.avg_refs                     79.042011                       # Average number of references to valid blocks.
system.l2.tags.warmup_cycle                     87000                       # Cycle when the warmup percentage was hit.
system.l2.tags.occ_blocks::.writebacks      61.550070                       # Average occupied blocks per requestor
system.l2.tags.occ_blocks::.cpu.inst      1040.262103                       # Average occupied blocks per requestor
system.l2.tags.occ_blocks::.cpu.data      4114.753523                       # Average occupied blocks per requestor
system.l2.tags.occ_percent::.writebacks      0.007513                       # Average percentage of cache occupancy
system.l2.tags.occ_percent::.cpu.inst        0.126985                       # Average percentage of cache occupancy
system.l2.tags.occ_percent::.cpu.data        0.502289                       # Average percentage of cache occupancy
system.l2.tags.occ_percent::total            0.636788                       # Average percentage of cache occupancy
system.l2.tags.occ_task_id_blocks::1024          5412                       # Occupied blocks per task id
system.l2.tags.age_task_id_blocks_1024::2            3                       # Occupied blocks per task id
system.l2.tags.age_task_id_blocks_1024::3            9                       # Occupied blocks per task id
system.l2.tags.age_task_id_blocks_1024::4         5400                       # Occupied blocks per task id
system.l2.tags.occ_task_id_percent::1024     0.660645                       # Percentage of cache occupancy per task id
system.l2.tags.tag_accesses                    961898                       # Number of tag accesses
system.l2.tags.data_accesses                   961898                       # Number of data accesses
system.cpu_voltage_domain.voltage                   1                       # Voltage in Volts
system.mem_ctrls.pwrStateResidencyTicks::UNDEFINED 123238518000                       # Cumulative time (in ticks) in various power states
system.mem_ctrls.bytes_read::.cpu.inst          84672                       # Number of bytes read from this memory
system.mem_ctrls.bytes_read::.cpu.data         296384                       # Number of bytes read from this memory
system.mem_ctrls.bytes_read::total             381056                       # Number of bytes read from this memory
system.mem_ctrls.bytes_inst_read::.cpu.inst        84672                       # Number of instructions bytes read from this memory
system.mem_ctrls.bytes_inst_read::total         84672                       # Number of instructions bytes read from this memory
system.mem_ctrls.bytes_written::.writebacks         4352                       # Number of bytes written to this memory
system.mem_ctrls.bytes_written::total            4352                       # Number of bytes written to this memory
system.mem_ctrls.num_reads::.cpu.inst            1323                       # Number of read requests responded to by this memory
system.mem_ctrls.num_reads::.cpu.data            4631                       # Number of read requests responded to by this memory
system.mem_ctrls.num_reads::total                5954                       # Number of read requests responded to by this memory
system.mem_ctrls.num_writes::.writebacks           68                       # Number of write requests responded to by this memory
system.mem_ctrls.num_writes::total                 68                       # Number of write requests responded to by this memory
system.mem_ctrls.bw_read::.cpu.inst            687058                       # Total read bandwidth from this memory (bytes/s)
system.mem_ctrls.bw_read::.cpu.data           2404962                       # Total read bandwidth from this memory (bytes/s)
system.mem_ctrls.bw_read::total               3092020                       # Total read bandwidth from this memory (bytes/s)
system.mem_ctrls.bw_inst_read::.cpu.inst       687058                       # Instruction read bandwidth from this memory (bytes/s)
system.mem_ctrls.bw_inst_read::total           687058                       # Instruction read bandwidth from this memory (bytes/s)
system.mem_ctrls.bw_write::.writebacks          35314                       # Write bandwidth from this memory (bytes/s)
system.mem_ctrls.bw_write::total                35314                       # Write bandwidth from this memory (bytes/s)
system.mem_ctrls.bw_total::.writebacks          35314                       # Total bandwidth to/from this memory (bytes/s)
system.mem_ctrls.bw_total::.cpu.inst           687058                       # Total bandwidth to/from this memory (bytes/s)
system.mem_ctrls.bw_total::.cpu.data          2404962                       # Total bandwidth to/from this memory (bytes/s)
system.mem_ctrls.bw_total::total              3127334                       # Total bandwidth to/from this memory (bytes/s)
system.mem_ctrls.avgPriority_.writebacks::samples        48.00                       # Average QoS priority value for accepted requests
system.mem_ctrls.avgPriority_.cpu.inst::samples      1323.00                       # Average QoS priority value for accepted requests
system.mem_ctrls.avgPriority_.cpu.data::samples      4549.00                       # Average QoS priority value for accepted requests
system.mem_ctrls.priorityMinLatency      0.000000018750                       # per QoS priority minimum request to response latency (s)
system.mem_ctrls.priorityMaxLatency      0.033019212500                       # per QoS priority maximum request to response latency (s)
system.mem_ctrls.numReadWriteTurnArounds            1                       # Number of turnarounds from READ to WRITE
system.mem_ctrls.numWriteReadTurnArounds            1                       # Number of turnarounds from WRITE to READ
system.mem_ctrls.numStayReadState               43458                       # Number of times bus staying in READ state
system.mem_ctrls.numStayWriteState                 17                       # Number of times bus staying in WRITE state
system.mem_ctrls.readReqs                        5954                       # Number of read requests accepted
system.mem_ctrls.writeReqs                         68                       # Number of write requests accepted
system.mem_ctrls.readBursts                      5954                       # Number of DRAM read bursts, including those serviced by the write queue
system.mem_ctrls.writeBursts                       68                       # Number of DRAM write bursts, including those merged in the write queue
system.mem_ctrls.servicedByWrQ                     82                       # Number of DRAM read bursts serviced by the write queue
system.mem_ctrls.mergedWrBursts                    20                       # Number of DRAM write bursts merged with an existing one
system.mem_ctrls.neitherReadNorWriteReqs            0                       # Number of requests that are neither read nor write
system.mem_ctrls.perBankRdBursts::0               361                       # Per bank write bursts
system.mem_ctrls.perBankRdBursts::1               321                       # Per bank write bursts
system.mem_ctrls.perBankRdBursts::2               341                       # Per bank write bursts
system.mem_ctrls.perBankRdBursts::3               324                       # Per bank write bursts
system.mem_ctrls.perBankRdBursts::4               322                       # Per bank write bursts
system.mem_ctrls.perBankRdBursts::5               539                       # Per bank write bursts
system.mem_ctrls.perBankRdBursts::6               361                       # Per bank write bursts
system.mem_ctrls.perBankRdBursts::7               448                       # Per bank write bursts
system.mem_ctrls.perBankRdBursts::8               278                       # Per bank write bursts
system.mem_ctrls.perBankRdBursts::9               340                       # Per bank write bursts
system.mem_ctrls.perBankRdBursts::10              472                       # Per bank write bursts
system.mem_ctrls.perBankRdBursts::11              387                       # Per bank write bursts
system.mem_ctrls.perBankRdBursts::12              422                       # Per bank write bursts
system.mem_ctrls.perBankRdBursts::13              349                       # Per bank write bursts
system.mem_ctrls.perBankRdBursts::14              308                       # Per bank write bursts
system.mem_ctrls.perBankRdBursts::15              299                       # Per bank write bursts
system.mem_ctrls.perBankWrBursts::0                 0                       # Per bank write bursts
system.mem_ctrls.perBankWrBursts::1                 0                       # Per bank write bursts
system.mem_ctrls.perBankWrBursts::2                 0                       # Per bank write bursts
system.mem_ctrls.perBankWrBursts::3                 0                       # Per bank write bursts
system.mem_ctrls.perBankWrBursts::4                 0                       # Per bank write bursts
system.mem_ctrls.perBankWrBursts::5                15                       # Per bank write bursts
system.mem_ctrls.perBankWrBursts::6                 0                       # Per bank write bursts
system.mem_ctrls.perBankWrBursts::7                 3                       # Per bank write bursts
system.mem_ctrls.perBankWrBursts::8                 0                       # Per bank write bursts
system.mem_ctrls.perBankWrBursts::9                 0                       # Per bank write bursts
system.mem_ctrls.perBankWrBursts::10                0                       # Per bank write bursts
system.mem_ctrls.perBankWrBursts::11                0                       # Per bank write bursts
system.mem_ctrls.perBankWrBursts::12                0                       # Per bank write bursts
system.mem_ctrls.perBankWrBursts::13                0                       # Per bank write bursts
system.mem_ctrls.perBankWrBursts::14                0                       # Per bank write bursts
system.mem_ctrls.perBankWrBursts::15                0                       # Per bank write bursts
system.mem_ctrls.avgRdQLen                       1.01                       # Average read queue length when enqueuing
system.mem_ctrls.avgWrQLen                      28.00                       # Average write queue length when enqueuing
system.mem_ctrls.totQLat                     58710750                       # Total ticks spent queuing
system.mem_ctrls.totBusLat                   29360000                       # Total ticks spent in databus transfers
system.mem_ctrls.totMemAccLat               168810750                       # Total ticks spent from burst creation until serviced by the DRAM
system.mem_ctrls.avgQLat                      9998.42                       # Average queueing delay per DRAM burst
system.mem_ctrls.avgBusLat                    5000.00                       # Average bus latency per DRAM burst
system.mem_ctrls.avgMemAccLat                28748.42                       # Average memory access latency per DRAM burst
system.mem_ctrls.numRdRetry                         0                       # Number of times read queue was full causing retry
system.mem_ctrls.numWrRetry                         0                       # Number of times write queue was full causing retry
system.mem_ctrls.readRowHits                     3741                       # Number of row buffer hits during reads
system.mem_ctrls.writeRowHits                      16                       # Number of row buffer hits during writes
system.mem_ctrls.readRowHitRate                 63.71                       # Row buffer hit rate for reads
system.mem_ctrls.writeRowHitRate                33.33                       # Row buffer hit rate for writes
system.mem_ctrls.readPktSize::0                     0                       # Read request sizes (log2)
system.mem_ctrls.readPktSize::1                     0                       # Read request sizes (log2)
system.mem_ctrls.readPktSize::2                     0                       # Read request sizes (log2)
system.mem_ctrls.readPktSize::3                     0                       # Read request sizes (log2)
system.mem_ctrls.readPktSize::4                     0                       # Read request sizes (log2)
system.mem_ctrls.readPktSize::5                     0                       # Read request sizes (log2)
system.mem_ctrls.readPktSize::6                  5954                       # Read request sizes (log2)
system.mem_ctrls.writePktSize::0                    0                       # Write request sizes (log2)
system.mem_ctrls.writePktSize::1                    0                       # Write request sizes (log2)
system.mem_ctrls.writePktSize::2                    0                       # Write request sizes (log2)
system.mem_ctrls.writePktSize::3                    0                       # Write request sizes (log2)
system.mem_ctrls.writePktSize::4                    0                       # Write request sizes (log2)
system.mem_ctrls.writePktSize::5                    0                       # Write request sizes (log2)
system.mem_ctrls.writePktSize::6                   68                       # Write request sizes (log2)
system.mem_ctrls.rdQLenPdf::0                    5466                       # What read queue length does an incoming req see
system.mem_ctrls.rdQLenPdf::1                     391                       # What read queue length does an incoming req see
system.mem_ctrls.rdQLenPdf::2                      15                       # What read queue length does an incoming req see
system.mem_ctrls.rdQLenPdf::3                       0                       # What read queue length does an incoming req see
system.mem_ctrls.rdQLenPdf::4                       0                       # What read queue length does an incoming req see
system.mem_ctrls.rdQLenPdf::5                       0                       # What read queue length does an incoming req see
system.mem_ctrls.rdQLenPdf::6                       0                       # What read queue length does an incoming req see
system.mem_ctrls.rdQLenPdf::7                       0                       # What read queue length does an incoming req see
system.mem_ctrls.rdQLenPdf::8                       0                       # What read queue length does an incoming req see
system.mem_ctrls.rdQLenPdf::9                       0                       # What read queue length does an incoming req see
system.mem_ctrls.rdQLenPdf::10                      0                       # What read queue length does an incoming req see
system.mem_ctrls.rdQLenPdf::11                      0                       # What read queue length does an incoming req see
system.mem_ctrls.rdQLenPdf::12                      0                       # What read queue length does an incoming req see
system.mem_ctrls.rdQLenPdf::13                      0                       # What read queue length does an incoming req see
system.mem_ctrls.rdQLenPdf::14                      0                       # What read queue length does an incoming req see
system.mem_ctrls.rdQLenPdf::15                      0                       # What read queue length does an incoming req see
system.mem_ctrls.rdQLenPdf::16                      0                       # What read queue length does an incoming req see
system.mem_ctrls.rdQLenPdf::17                      0                       # What read queue length does an incoming req see
system.mem_ctrls.rdQLenPdf::18                      0                       # What read queue length does an incoming req see
system.mem_ctrls.rdQLenPdf::19                      0                       # What read queue length does an incoming req see
system.mem_ctrls.rdQLenPdf::20                      0                       # What read queue length does an incoming req see
system.mem_ctrls.rdQLenPdf::21                      0                       # What read queue length does an incoming req see
system.mem_ctrls.rdQLenPdf::22                      0                       # What read queue length does an incoming req see
system.mem_ctrls.rdQLenPdf::23                      0                       # What read queue length does an incoming req see
system.mem_ctrls.rdQLenPdf::24                      0                       # What read queue length does an incoming req see
system.mem_ctrls.rdQLenPdf::25                      0                       # What read queue length does an incoming req see
system.mem_ctrls.rdQLenPdf::26                      0                       # What read queue length does an incoming req see
system.mem_ctrls.rdQLenPdf::27                      0                       # What read queue length does an incoming req see
system.mem_ctrls.rdQLenPdf::28                      0                       # What read queue length does an incoming req see
system.mem_ctrls.rdQLenPdf::29                      0                       # What read queue length does an incoming req see
system.mem_ctrls.rdQLenPdf::30                      0                       # What read queue length does an incoming req see
system.mem_ctrls.rdQLenPdf::31                      0                       # What read queue length does an incoming req see
system.mem_ctrls.wrQLenPdf::0                       1                       # What write queue length does an incoming req see
system.mem_ctrls.wrQLenPdf::1                       1                       # What write queue length does an incoming req see
system.mem_ctrls.wrQLenPdf::2                       1                       # What write queue length does an incoming req see
system.mem_ctrls.wrQLenPdf::3                       1                       # What write queue length does an incoming req see
system.mem_ctrls.wrQLenPdf::4                       1                       # What write queue length does an incoming req see
system.mem_ctrls.wrQLenPdf::5                       1                       # What write queue length does an incoming req see
system.mem_ctrls.wrQLenPdf::6                       1                       # What write queue length does an incoming req see
system.mem_ctrls.wrQLenPdf::7                       1                       # What write queue length does an incoming req see
system.mem_ctrls.wrQLenPdf::8                       1                       # What write queue length does an incoming req see
system.mem_ctrls.wrQLenPdf::9                       1                       # What write queue length does an incoming req see
system.mem_ctrls.wrQLenPdf::10                      1                       # What write queue length does an incoming req see
system.mem_ctrls.wrQLenPdf::11                      1                       # What write queue length does an incoming req see
system.mem_ctrls.wrQLenPdf::12                      1                       # What write queue length does an incoming req see
system.mem_ctrls.wrQLenPdf::13                      1                       # What write queue length does an incoming req see
system.mem_ctrls.wrQLenPdf::14                      1                       # What write queue length does an incoming req see
system.mem_ctrls.wrQLenPdf::15                      2                       # What write queue length does an incoming req see
system.mem_ctrls.wrQLenPdf::16                      2                       # What write queue length does an incoming req see
system.mem_ctrls.wrQLenPdf::17                      2                       # What write queue length does an incoming req see
system.mem_ctrls.wrQLenPdf::18                      2                       # What write queue length does an incoming req see
system.mem_ctrls.wrQLenPdf::19                      2                       # What write queue length does an incoming req see
system.mem_ctrls.wrQLenPdf::20                      2                       # What write queue length does an incoming req see
system.mem_ctrls.wrQLenPdf::21                      2                       # What write queue length does an incoming req see
system.mem_ctrls.wrQLenPdf::22                      2                       # What write queue length does an incoming req see
system.mem_ctrls.wrQLenPdf::23                      2                       # What write queue length does an incoming req see
system.mem_ctrls.wrQLenPdf::24                      2                       # What write queue length does an incoming req see
system.mem_ctrls.wrQLenPdf::25                      2                       # What write queue length does an incoming req see
system.mem_ctrls.wrQLenPdf::26                      2                       # What write queue length does an incoming req see
system.mem_ctrls.wrQLenPdf::27                      2                       # What write queue length does an incoming req see
system.mem_ctrls.wrQLenPdf::28                      2                       # What write queue length does an incoming req see
system.mem_ctrls.wrQLenPdf::29                      2                       # What write queue length does an incoming req see
system.mem_ctrls.wrQLenPdf::30                      1                       # What write queue length does an incoming req see
system.mem_ctrls.wrQLenPdf::31                      1                       # What write queue length does an incoming req see
system.mem_ctrls.wrQLenPdf::32                      1                       # What write queue length does an incoming req see
system.mem_ctrls.wrQLenPdf::33                      0                       # What write queue length does an incoming req see
system.mem_ctrls.wrQLenPdf::34                      0                       # What write queue length does an incoming req see
system.mem_ctrls.wrQLenPdf::35                      0                       # What write queue length does an incoming req see
system.mem_ctrls.wrQLenPdf::36                      0                       # What write queue length does an incoming req see
system.mem_ctrls.wrQLenPdf::37                      0                       # What write queue length does an incoming req see
system.mem_ctrls.wrQLenPdf::38                      0                       # What write queue length does an incoming req see
system.mem_ctrls.wrQLenPdf::39                      0                       # What write queue length does an incoming req see
system.mem_ctrls.wrQLenPdf::40                      0                       # What write queue length does an incoming req see
system.mem_ctrls.wrQLenPdf::41                      0                       # What write queue length does an incoming req see
system.mem_ctrls.wrQLenPdf::42                      0                       # What write queue length does an incoming req see
system.mem_ctrls.wrQLenPdf::43                      0                       # What write queue length does an incoming req see
system.mem_ctrls.wrQLenPdf::44                      0                       # What write queue length does an incoming req see
system.mem_ctrls.wrQLenPdf::45                      0                       # What write queue length does an incoming req see
system.mem_ctrls.wrQLenPdf::46                      0                       # What write queue length does an incoming req see
system.mem_ctrls.wrQLenPdf::47                      0                       # What write queue length does an incoming req see
system.mem_ctrls.wrQLenPdf::48                      0                       # What write queue length does an incoming req see
system.mem_ctrls.wrQLenPdf::49                      0                       # What write queue length does an incoming req see
system.mem_ctrls.wrQLenPdf::50                      0                       # What write queue length does an incoming req see
system.mem_ctrls.wrQLenPdf::51                      0                       # What write queue length does an incoming req see
system.mem_ctrls.wrQLenPdf::52                      0                       # What write queue length does an incoming req see
system.mem_ctrls.wrQLenPdf::53                      0                       # What write queue length does an incoming req see
system.mem_ctrls.wrQLenPdf::54                      0                       # What write queue length does an incoming req see
system.mem_ctrls.wrQLenPdf::55                      0                       # What write queue length does an incoming req see
system.mem_ctrls.wrQLenPdf::56                      0                       # What write queue length does an incoming req see
system.mem_ctrls.wrQLenPdf::57                      0                       # What write queue length does an incoming req see
system.mem_ctrls.wrQLenPdf::58                      0                       # What write queue length does an incoming req see
system.mem_ctrls.wrQLenPdf::59                      0                       # What write queue length does an incoming req see
system.mem_ctrls.wrQLenPdf::60                      0                       # What write queue length does an incoming req see
system.mem_ctrls.wrQLenPdf::61                      0                       # What write queue length does an incoming req see
system.mem_ctrls.wrQLenPdf::62                      0                       # What write queue length does an incoming req see
system.mem_ctrls.wrQLenPdf::63                      0                       # What write queue length does an incoming req see
system.mem_ctrls.bytesPerActivate::samples         2133                       # Bytes accessed per row activation
system.mem_ctrls.bytesPerActivate::mean    176.727614                       # Bytes accessed per row activation
system.mem_ctrls.bytesPerActivate::gmean   112.527082                       # Bytes accessed per row activation
system.mem_ctrls.bytesPerActivate::stdev   238.402838                       # Bytes accessed per row activation
system.mem_ctrls.bytesPerActivate::0-127         1168     54.76%     54.76% # Bytes accessed per row activation
system.mem_ctrls.bytesPerActivate::128-255          615     28.83%     83.59% # Bytes accessed per row activation
system.mem_ctrls.bytesPerActivate::256-383          111      5.20%     88.80% # Bytes accessed per row activation
system.mem_ctrls.bytesPerActivate::384-511           41      1.92%     90.72% # Bytes accessed per row activation
system.mem_ctrls.bytesPerActivate::512-639           38      1.78%     92.50% # Bytes accessed per row activation
system.mem_ctrls.bytesPerActivate::640-767           21      0.98%     93.48% # Bytes accessed per row activation
system.mem_ctrls.bytesPerActivate::768-895           18      0.84%     94.33% # Bytes accessed per row activation
system.mem_ctrls.bytesPerActivate::896-1023           14      0.66%     94.98% # Bytes accessed per row activation
system.mem_ctrls.bytesPerActivate::1024-1151          107      5.02%    100.00% # Bytes accessed per row activation
system.mem_ctrls.bytesPerActivate::total         2133                       # Bytes accessed per row activation
system.mem_ctrls.rdPerTurnAround::samples            1                       # Reads before turning the bus around for writes
system.mem_ctrls.rdPerTurnAround::mean           5598                       # Reads before turning the bus around for writes
system.mem_ctrls.rdPerTurnAround::gmean   5598.000000                       # Reads before turning the bus around for writes
system.mem_ctrls.rdPerTurnAround::stdev           nan                       # Reads before turning the bus around for writes
system.mem_ctrls.rdPerTurnAround::5376-5631            1    100.00%    100.00% # Reads before turning the bus around for writes
system.mem_ctrls.rdPerTurnAround::total             1                       # Reads before turning the bus around for writes
system.mem_ctrls.wrPerTurnAround::samples            1                       # Writes before turning the bus around for reads
[...]
system.cpu.icache.tags.occ_task_id_blocks::1024          829                       # Occupied blocks per task id
system.cpu.icache.tags.age_task_id_blocks_1024::2            1                       # Occupied blocks per task id
system.cpu.icache.tags.age_task_id_blocks_1024::3            2                       # Occupied blocks per task id
system.cpu.icache.tags.age_task_id_blocks_1024::4          826                       # Occupied blocks per task id
system.cpu.icache.tags.occ_task_id_percent::1024     0.809570                       # Percentage of cache occupancy per task id
system.cpu.icache.tags.tag_accesses          17151013                       # Number of tag accesses
system.cpu.icache.tags.data_accesses         17151013                       # Number of data accesses
system.cpu.dtb.walker.pwrStateResidencyTicks::UNDEFINED 123238518000                       # Cumulative time (in ticks) in various power states
system.cpu.dtb.stage2_mmu.stage2_tlb.walker.pwrStateResidencyTicks::UNDEFINED 123238518000                       # Cumulative time (in ticks) in various power states
system.cpu.dcache.pwrStateResidencyTicks::UNDEFINED 123238518000                       # Cumulative time (in ticks) in various power states
system.cpu.dcache.demand_hits::.cpu.data     43588893                       # number of demand (read+write) hits
system.cpu.dcache.demand_hits::total         43588893                       # number of demand (read+write) hits
system.cpu.dcache.overall_hits::.cpu.data     43597399                       # number of overall hits
system.cpu.dcache.overall_hits::total        43597399                       # number of overall hits
system.cpu.dcache.demand_misses::.cpu.data       253147                       # number of demand (read+write) misses
system.cpu.dcache.demand_misses::total         253147                       # number of demand (read+write) misses
system.cpu.dcache.overall_misses::.cpu.data       253335                       # number of overall misses
system.cpu.dcache.overall_misses::total        253335                       # number of overall misses
system.cpu.dcache.demand_miss_latency::.cpu.data   8493044000                       # number of demand (read+write) miss cycles
system.cpu.dcache.demand_miss_latency::total   8493044000                       # number of demand (read+write) miss cycles
system.cpu.dcache.overall_miss_latency::.cpu.data   8493044000                       # number of overall miss cycles
system.cpu.dcache.overall_miss_latency::total   8493044000                       # number of overall miss cycles
system.cpu.dcache.demand_accesses::.cpu.data     43842040                       # number of demand (read+write) accesses
system.cpu.dcache.demand_accesses::total     43842040                       # number of demand (read+write) accesses
system.cpu.dcache.overall_accesses::.cpu.data     43850734                       # number of overall (read+write) accesses
system.cpu.dcache.overall_accesses::total     43850734                       # number of overall (read+write) accesses
system.cpu.dcache.demand_miss_rate::.cpu.data     0.005774                       # miss rate for demand accesses
system.cpu.dcache.demand_miss_rate::total     0.005774                       # miss rate for demand accesses
system.cpu.dcache.overall_miss_rate::.cpu.data     0.005777                       # miss rate for overall accesses
system.cpu.dcache.overall_miss_rate::total     0.005777                       # miss rate for overall accesses
system.cpu.dcache.demand_avg_miss_latency::.cpu.data 33549.850482                       # average overall miss latency
system.cpu.dcache.demand_avg_miss_latency::total 33549.850482                       # average overall miss latency
system.cpu.dcache.overall_avg_miss_latency::.cpu.data 33524.953125                       # average overall miss latency
system.cpu.dcache.overall_avg_miss_latency::total 33524.953125                       # average overall miss latency
system.cpu.dcache.blocked_cycles::no_mshrs          154                       # number of cycles access was blocked
system.cpu.dcache.blocked_cycles::no_targets            0                       # number of cycles access was blocked
system.cpu.dcache.blocked::no_mshrs                 6                       # number of cycles access was blocked
system.cpu.dcache.blocked::no_targets               0                       # number of cycles access was blocked
system.cpu.dcache.avg_blocked_cycles::no_mshrs    25.666667                       # average number of cycles each access was blocked
system.cpu.dcache.avg_blocked_cycles::no_targets          nan                       # average number of cycles each access was blocked
system.cpu.dcache.writebacks::.writebacks       233580                       # number of writebacks
system.cpu.dcache.writebacks::total            233580                       # number of writebacks
system.cpu.dcache.demand_mshr_hits::.cpu.data        15150                       # number of demand (read+write) MSHR hits
system.cpu.dcache.demand_mshr_hits::total        15150                       # number of demand (read+write) MSHR hits
system.cpu.dcache.overall_mshr_hits::.cpu.data        15150                       # number of overall MSHR hits
system.cpu.dcache.overall_mshr_hits::total        15150                       # number of overall MSHR hits
system.cpu.dcache.demand_mshr_misses::.cpu.data       237997                       # number of demand (read+write) MSHR misses
system.cpu.dcache.demand_mshr_misses::total       237997                       # number of demand (read+write) MSHR misses
system.cpu.dcache.overall_mshr_misses::.cpu.data       238169                       # number of overall MSHR misses
system.cpu.dcache.overall_mshr_misses::total       238169                       # number of overall MSHR misses
system.cpu.dcache.demand_mshr_miss_latency::.cpu.data   7442887000                       # number of demand (read+write) MSHR miss cycles
system.cpu.dcache.demand_mshr_miss_latency::total   7442887000                       # number of demand (read+write) MSHR miss cycles
system.cpu.dcache.overall_mshr_miss_latency::.cpu.data   7454161000                       # number of overall MSHR miss cycles
system.cpu.dcache.overall_mshr_miss_latency::total   7454161000                       # number of overall MSHR miss cycles
system.cpu.dcache.demand_mshr_miss_rate::.cpu.data     0.005429                       # mshr miss rate for demand accesses
system.cpu.dcache.demand_mshr_miss_rate::total     0.005429                       # mshr miss rate for demand accesses
system.cpu.dcache.overall_mshr_miss_rate::.cpu.data     0.005431                       # mshr miss rate for overall accesses
system.cpu.dcache.overall_mshr_miss_rate::total     0.005431                       # mshr miss rate for overall accesses
system.cpu.dcache.demand_avg_mshr_miss_latency::.cpu.data 31273.028652                       # average overall mshr miss latency
system.cpu.dcache.demand_avg_mshr_miss_latency::total 31273.028652                       # average overall mshr miss latency
system.cpu.dcache.overall_avg_mshr_miss_latency::.cpu.data 31297.780148                       # average overall mshr miss latency
system.cpu.dcache.overall_avg_mshr_miss_latency::total 31297.780148                       # average overall mshr miss latency
system.cpu.dcache.replacements                 237658                       # number of replacements
system.cpu.dcache.ReadReq_hits::.cpu.data     37360357                       # number of ReadReq hits
system.cpu.dcache.ReadReq_hits::total        37360357                       # number of ReadReq hits
system.cpu.dcache.ReadReq_misses::.cpu.data       156789                       # number of ReadReq misses
system.cpu.dcache.ReadReq_misses::total        156789                       # number of ReadReq misses
system.cpu.dcache.ReadReq_miss_latency::.cpu.data   5301658000                       # number of ReadReq miss cycles
system.cpu.dcache.ReadReq_miss_latency::total   5301658000                       # number of ReadReq miss cycles
system.cpu.dcache.ReadReq_accesses::.cpu.data     37517146                       # number of ReadReq accesses(hits+misses)
system.cpu.dcache.ReadReq_accesses::total     37517146                       # number of ReadReq accesses(hits+misses)
system.cpu.dcache.ReadReq_miss_rate::.cpu.data     0.004179                       # miss rate for ReadReq accesses
system.cpu.dcache.ReadReq_miss_rate::total     0.004179                       # miss rate for ReadReq accesses
system.cpu.dcache.ReadReq_avg_miss_latency::.cpu.data 33813.966541                       # average ReadReq miss latency
system.cpu.dcache.ReadReq_avg_miss_latency::total 33813.966541                       # average ReadReq miss latency
system.cpu.dcache.ReadReq_mshr_hits::.cpu.data         6769                       # number of ReadReq MSHR hits
system.cpu.dcache.ReadReq_mshr_hits::total         6769                       # number of ReadReq MSHR hits
system.cpu.dcache.ReadReq_mshr_misses::.cpu.data       150020                       # number of ReadReq MSHR misses
system.cpu.dcache.ReadReq_mshr_misses::total       150020                       # number of ReadReq MSHR misses
system.cpu.dcache.ReadReq_mshr_miss_latency::.cpu.data   4776215000                       # number of ReadReq MSHR miss cycles
system.cpu.dcache.ReadReq_mshr_miss_latency::total   4776215000                       # number of ReadReq MSHR miss cycles
system.cpu.dcache.ReadReq_mshr_miss_rate::.cpu.data     0.003999                       # mshr miss rate for ReadReq accesses
system.cpu.dcache.ReadReq_mshr_miss_rate::total     0.003999                       # mshr miss rate for ReadReq accesses
system.cpu.dcache.ReadReq_avg_mshr_miss_latency::.cpu.data 31837.188375                       # average ReadReq mshr miss latency
system.cpu.dcache.ReadReq_avg_mshr_miss_latency::total 31837.188375                       # average ReadReq mshr miss latency
system.cpu.dcache.WriteReq_hits::.cpu.data      6228536                       # number of WriteReq hits
system.cpu.dcache.WriteReq_hits::total        6228536                       # number of WriteReq hits
system.cpu.dcache.WriteReq_misses::.cpu.data        96358                       # number of WriteReq misses
system.cpu.dcache.WriteReq_misses::total        96358                       # number of WriteReq misses
system.cpu.dcache.WriteReq_miss_latency::.cpu.data   3191386000                       # number of WriteReq miss cycles
system.cpu.dcache.WriteReq_miss_latency::total   3191386000                       # number of WriteReq miss cycles
system.cpu.dcache.WriteReq_accesses::.cpu.data      6324894                       # number of WriteReq accesses(hits+misses)
system.cpu.dcache.WriteReq_accesses::total      6324894                       # number of WriteReq accesses(hits+misses)
system.cpu.dcache.WriteReq_miss_rate::.cpu.data     0.015235                       # miss rate for WriteReq accesses
system.cpu.dcache.WriteReq_miss_rate::total     0.015235                       # miss rate for WriteReq accesses
system.cpu.dcache.WriteReq_avg_miss_latency::.cpu.data 33120.093817                       # average WriteReq miss latency
system.cpu.dcache.WriteReq_avg_miss_latency::total 33120.093817                       # average WriteReq miss latency
system.cpu.dcache.WriteReq_mshr_hits::.cpu.data         8381                       # number of WriteReq MSHR hits
system.cpu.dcache.WriteReq_mshr_hits::total         8381                       # number of WriteReq MSHR hits
system.cpu.dcache.WriteReq_mshr_misses::.cpu.data        87977                       # number of WriteReq MSHR misses
system.cpu.dcache.WriteReq_mshr_misses::total        87977                       # number of WriteReq MSHR misses
system.cpu.dcache.WriteReq_mshr_miss_latency::.cpu.data   2666672000                       # number of WriteReq MSHR miss cycles
system.cpu.dcache.WriteReq_mshr_miss_latency::total   2666672000                       # number of WriteReq MSHR miss cycles
system.cpu.dcache.WriteReq_mshr_miss_rate::.cpu.data     0.013910                       # mshr miss rate for WriteReq accesses
system.cpu.dcache.WriteReq_mshr_miss_rate::total     0.013910                       # mshr miss rate for WriteReq accesses
system.cpu.dcache.WriteReq_avg_mshr_miss_latency::.cpu.data 30311.013106                       # average WriteReq mshr miss latency
system.cpu.dcache.WriteReq_avg_mshr_miss_latency::total 30311.013106                       # average WriteReq mshr miss latency
system.cpu.dcache.SoftPFReq_hits::.cpu.data         8506                       # number of SoftPFReq hits
system.cpu.dcache.SoftPFReq_hits::total          8506                       # number of SoftPFReq hits
system.cpu.dcache.SoftPFReq_misses::.cpu.data          188                       # number of SoftPFReq misses
system.cpu.dcache.SoftPFReq_misses::total          188                       # number of SoftPFReq misses
system.cpu.dcache.SoftPFReq_accesses::.cpu.data         8694                       # number of SoftPFReq accesses(hits+misses)
system.cpu.dcache.SoftPFReq_accesses::total         8694                       # number of SoftPFReq accesses(hits+misses)
system.cpu.dcache.SoftPFReq_miss_rate::.cpu.data     0.021624                       # miss rate for SoftPFReq accesses
system.cpu.dcache.SoftPFReq_miss_rate::total     0.021624                       # miss rate for SoftPFReq accesses
system.cpu.dcache.SoftPFReq_mshr_misses::.cpu.data          172                       # number of SoftPFReq MSHR misses
system.cpu.dcache.SoftPFReq_mshr_misses::total          172                       # number of SoftPFReq MSHR misses
system.cpu.dcache.SoftPFReq_mshr_miss_latency::.cpu.data     11274000                       # number of SoftPFReq MSHR miss cycles
system.cpu.dcache.SoftPFReq_mshr_miss_latency::total     11274000                       # number of SoftPFReq MSHR miss cycles
system.cpu.dcache.SoftPFReq_mshr_miss_rate::.cpu.data     0.019784                       # mshr miss rate for SoftPFReq accesses
system.cpu.dcache.SoftPFReq_mshr_miss_rate::total     0.019784                       # mshr miss rate for SoftPFReq accesses
system.cpu.dcache.SoftPFReq_avg_mshr_miss_latency::.cpu.data 65546.511628                       # average SoftPFReq mshr miss latency
system.cpu.dcache.SoftPFReq_avg_mshr_miss_latency::total 65546.511628                       # average SoftPFReq mshr miss latency
system.cpu.dcache.LoadLockedReq_hits::.cpu.data          165                       # number of LoadLockedReq hits
system.cpu.dcache.LoadLockedReq_hits::total          165                       # number of LoadLockedReq hits
system.cpu.dcache.LoadLockedReq_misses::.cpu.data            1                       # number of LoadLockedReq misses
system.cpu.dcache.LoadLockedReq_misses::total            1                       # number of LoadLockedReq misses
system.cpu.dcache.LoadLockedReq_miss_latency::.cpu.data        95000                       # number of LoadLockedReq miss cycles
system.cpu.dcache.LoadLockedReq_miss_latency::total        95000                       # number of LoadLockedReq miss cycles
system.cpu.dcache.LoadLockedReq_accesses::.cpu.data          166                       # number of LoadLockedReq accesses(hits+misses)
system.cpu.dcache.LoadLockedReq_accesses::total          166                       # number of LoadLockedReq accesses(hits+misses)
system.cpu.dcache.LoadLockedReq_miss_rate::.cpu.data     0.006024                       # miss rate for LoadLockedReq accesses
system.cpu.dcache.LoadLockedReq_miss_rate::total     0.006024                       # miss rate for LoadLockedReq accesses
system.cpu.dcache.LoadLockedReq_avg_miss_latency::.cpu.data        95000                       # average LoadLockedReq miss latency
system.cpu.dcache.LoadLockedReq_avg_miss_latency::total        95000                       # average LoadLockedReq miss latency
system.cpu.dcache.LoadLockedReq_mshr_misses::.cpu.data            1                       # number of LoadLockedReq MSHR misses
system.cpu.dcache.LoadLockedReq_mshr_misses::total            1                       # number of LoadLockedReq MSHR misses
system.cpu.dcache.LoadLockedReq_mshr_miss_latency::.cpu.data        93000                       # number of LoadLockedReq MSHR miss cycles
system.cpu.dcache.LoadLockedReq_mshr_miss_latency::total        93000                       # number of LoadLockedReq MSHR miss cycles
system.cpu.dcache.LoadLockedReq_mshr_miss_rate::.cpu.data     0.006024                       # mshr miss rate for LoadLockedReq accesses
system.cpu.dcache.LoadLockedReq_mshr_miss_rate::total     0.006024                       # mshr miss rate for LoadLockedReq accesses
system.cpu.dcache.LoadLockedReq_avg_mshr_miss_latency::.cpu.data        93000                       # average LoadLockedReq mshr miss latency
system.cpu.dcache.LoadLockedReq_avg_mshr_miss_latency::total        93000                       # average LoadLockedReq mshr miss latency
system.cpu.dcache.StoreCondReq_hits::.cpu.data          166                       # number of StoreCondReq hits
system.cpu.dcache.StoreCondReq_hits::total          166                       # number of StoreCondReq hits
system.cpu.dcache.StoreCondReq_accesses::.cpu.data          166                       # number of StoreCondReq accesses(hits+misses)
system.cpu.dcache.StoreCondReq_accesses::total          166                       # number of StoreCondReq accesses(hits+misses)
system.cpu.dcache.tags.pwrStateResidencyTicks::UNDEFINED 123238518000                       # Cumulative time (in ticks) in various power states
system.cpu.dcache.tags.tagsinuse           509.674572                       # Cycle average of tags in use
system.cpu.dcache.tags.total_refs            43835900                       # Total number of references to valid blocks.
system.cpu.dcache.tags.sampled_refs            238170                       # Sample count of references to valid blocks.
system.cpu.dcache.tags.avg_refs            184.052987                       # Average number of references to valid blocks.
system.cpu.dcache.tags.warmup_cycle            223000                       # Cycle when the warmup percentage was hit.
system.cpu.dcache.tags.occ_blocks::.cpu.data   509.674572                       # Average occupied blocks per requestor
system.cpu.dcache.tags.occ_percent::.cpu.data     0.995458                       # Average percentage of cache occupancy
system.cpu.dcache.tags.occ_percent::total     0.995458                       # Average percentage of cache occupancy
system.cpu.dcache.tags.occ_task_id_blocks::1024          512                       # Occupied blocks per task id
system.cpu.dcache.tags.age_task_id_blocks_1024::0            6                       # Occupied blocks per task id
system.cpu.dcache.tags.age_task_id_blocks_1024::1           46                       # Occupied blocks per task id
system.cpu.dcache.tags.age_task_id_blocks_1024::2          298                       # Occupied blocks per task id
system.cpu.dcache.tags.age_task_id_blocks_1024::3          162                       # Occupied blocks per task id
system.cpu.dcache.tags.occ_task_id_percent::1024            1                       # Percentage of cache occupancy per task id
system.cpu.dcache.tags.tag_accesses          44089236                       # Number of tag accesses
system.cpu.dcache.tags.data_accesses         44089236                       # Number of data accesses
system.cpu.itb.walker.pwrStateResidencyTicks::UNDEFINED 123238518000                       # Cumulative time (in ticks) in various power states
system.cpu.itb.stage2_mmu.stage2_tlb.walker.pwrStateResidencyTicks::UNDEFINED 123238518000                       # Cumulative time (in ticks) in various power states

---------- End Simulation Statistics   ----------
