
---------- Begin Simulation Statistics ----------
final_tick                               109765290000                       # Number of ticks from beginning of simulation (restored from checkpoints and never reset)
host_inst_rate                                 360680                       # Simulator instruction rate (inst/s)
host_mem_usage                                 709636                       # Number of bytes of host memory used
host_op_rate                                   393644                       # Simulator op (including micro ops) rate (op/s)
host_seconds                                   277.25                       # Real time elapsed on the host
host_tick_rate                              395901793                       # Simulator tick rate (ticks/s)
sim_freq                                 1000000000000                       # Frequency of simulated ticks
sim_insts                                   100000000                       # Number of instructions simulated
sim_ops                                     109139424                       # Number of ops (including micro ops) simulated
sim_seconds                                  0.109765                       # Number of seconds simulated
sim_ticks                                109765290000                       # Number of ticks simulated
system.cpu.branchPred.BTBCorrect                    0                       # Number of correct BTB predictions (this stat may not work properly.
system.cpu.branchPred.BTBHitPct             92.963590                       # BTB Hit Percentage
system.cpu.branchPred.BTBHits                 8062946                       # Number of BTB hits
system.cpu.branchPred.BTBLookups              8673230                       # Number of BTB lookups
system.cpu.branchPred.RASInCorrect                482                       # Number of incorrect RAS predictions.
system.cpu.branchPred.condIncorrect             88897                       # Number of conditional branches incorrect
system.cpu.branchPred.condPredicted          15819022                       # Number of conditional branches predicted
system.cpu.branchPred.indirectHits             287880                       # Number of indirect target hits.
system.cpu.branchPred.indirectLookups          551121                       # Number of indirect predictor lookups.
system.cpu.branchPred.indirectMisses           263241                       # Number of indirect misses.
system.cpu.branchPred.lookups                19659364                       # Number of BP lookups
system.cpu.branchPred.usedRAS                 1050542                       # Number of times the RAS was used to get a target.
system.cpu.branchPredindirectMispredicted          987                       # Number of mispredicted indirect branches.
system.cpu.committedInsts                   100000000                       # Number of instructions committed
system.cpu.committedOps                     109139424                       # Number of ops (including micro ops) committed
system.cpu.cpi                               1.097653                       # CPI: cycles per instruction
system.cpu.discardedOps                        430699                       # Number of ops (including micro ops) which were discarded before commit
system.cpu.dtb.accesses                             0                       # DTB accesses
system.cpu.dtb.align_faults                         0                       # Number of TLB faults due to alignment restrictions
system.cpu.dtb.domain_faults                        0                       # Number of TLB faults due to domain restrictions
system.cpu.dtb.flush_entries                        0                       # Number of entries that have been flushed from TLB
system.cpu.dtb.flush_tlb                            0                       # Number of times complete TLB was flushed
system.cpu.dtb.flush_tlb_asid                       0                       # Number of times TLB was flushed by ASID
system.cpu.dtb.flush_tlb_mva                        0                       # Number of times TLB was flushed by MVA
system.cpu.dtb.flush_tlb_mva_asid                   0                       # Number of times TLB was flushed by MVA & ASID
system.cpu.dtb.hits                                 0                       # DTB hits
system.cpu.dtb.inst_accesses                        0                       # ITB inst accesses
system.cpu.dtb.inst_hits                            0                       # ITB inst hits
system.cpu.dtb.inst_misses                          0                       # ITB inst misses
system.cpu.dtb.misses                               0                       # DTB misses
system.cpu.dtb.perms_faults                         0                       # Number of TLB faults due to permissions restrictions
system.cpu.dtb.prefetch_faults                      0                       # Number of TLB faults due to prefetch
system.cpu.dtb.read_accesses                        0                       # DTB read accesses
system.cpu.dtb.read_hits                            0                       # DTB read hits
system.cpu.dtb.read_misses                          0                       # DTB read misses
system.cpu.dtb.stage2_mmu.stage2_tlb.accesses            0                       # DTB accesses
system.cpu.dtb.stage2_mmu.stage2_tlb.align_faults            0                       # Number of TLB faults due to alignment restrictions
system.cpu.dtb.stage2_mmu.stage2_tlb.domain_faults            0                       # Number of TLB faults due to domain restrictions
system.cpu.dtb.stage2_mmu.stage2_tlb.flush_entries            0                       # Number of entries that have been flushed from TLB
system.cpu.dtb.stage2_mmu.stage2_tlb.flush_tlb            0                       # Number of times complete TLB was flushed
system.cpu.dtb.stage2_mmu.stage2_tlb.flush_tlb_asid            0                       # Number of times TLB was flushed by ASID
system.cpu.dtb.stage2_mmu.stage2_tlb.flush_tlb_mva            0                       # Number of times TLB was flushed by MVA
system.cpu.dtb.stage2_mmu.stage2_tlb.flush_tlb_mva_asid            0                       # Number of times TLB was flushed by MVA & ASID
system.cpu.dtb.stage2_mmu.stage2_tlb.hits            0                       # DTB hits
system.cpu.dtb.stage2_mmu.stage2_tlb.inst_accesses            0                       # ITB inst accesses
system.cpu.dtb.stage2_mmu.stage2_tlb.inst_hits            0                       # ITB inst hits
system.cpu.dtb.stage2_mmu.stage2_tlb.inst_misses            0                       # ITB inst misses
system.cpu.dtb.stage2_mmu.stage2_tlb.misses            0                       # DTB misses
system.cpu.dtb.stage2_mmu.stage2_tlb.perms_faults            0                       # Number of TLB faults due to permissions restrictions
system.cpu.dtb.stage2_mmu.stage2_tlb.prefetch_faults            0                       # Number of TLB faults due to prefetch
system.cpu.dtb.stage2_mmu.stage2_tlb.read_accesses            0                       # DTB read accesses
system.cpu.dtb.stage2_mmu.stage2_tlb.read_hits            0                       # DTB read hits
system.cpu.dtb.stage2_mmu.stage2_tlb.read_misses            0                       # DTB read misses
system.cpu.dtb.stage2_mmu.stage2_tlb.walker.walkRequestOrigin_Requested::Data            0                       # Table walker requests started/completed, data/inst
system.cpu.dtb.stage2_mmu.stage2_tlb.walker.walkRequestOrigin_Requested::Inst            0                       # Table walker requests started/completed, data/inst
system.cpu.dtb.stage2_mmu.stage2_tlb.walker.walkRequestOrigin_Requested::total            0                       # Table walker requests started/completed, data/inst
system.cpu.dtb.stage2_mmu.stage2_tlb.walker.walkRequestOrigin_Completed::Data            0                       # Table walker requests started/completed, data/inst
system.cpu.dtb.stage2_mmu.stage2_tlb.walker.walkRequestOrigin_Completed::Inst            0                       # Table walker requests started/completed, data/inst
system.cpu.dtb.stage2_mmu.stage2_tlb.walker.walkRequestOrigin_Completed::total            0                       # Table walker requests started/completed, data/inst
system.cpu.dtb.stage2_mmu.stage2_tlb.walker.walkRequestOrigin::total            0                       # Table walker requests started/completed, data/inst
system.cpu.dtb.stage2_mmu.stage2_tlb.walker.walks            0                       # Table walker walks requested
system.cpu.dtb.stage2_mmu.stage2_tlb.write_accesses            0                       # DTB write accesses
system.cpu.dtb.stage2_mmu.stage2_tlb.write_hits            0                       # DTB write hits
system.cpu.dtb.stage2_mmu.stage2_tlb.write_misses            0                       # DTB write misses
system.cpu.dtb.walker.walkRequestOrigin_Requested::Data            0                       # Table walker requests started/completed, data/inst
system.cpu.dtb.walker.walkRequestOrigin_Requested::Inst            0                       # Table walker requests started/completed, data/inst
system.cpu.dtb.walker.walkRequestOrigin_Requested::total            0                       # Table walker requests started/completed, data/inst
system.cpu.dtb.walker.walkRequestOrigin_Completed::Data            0                       # Table walker requests started/completed, data/inst
system.cpu.dtb.walker.walkRequestOrigin_Completed::Inst            0                       # Table walker requests started/completed, data/inst
system.cpu.dtb.walker.walkRequestOrigin_Completed::total            0                       # Table walker requests started/completed, data/inst
system.cpu.dtb.walker.walkRequestOrigin::total            0                       # Table walker requests started/completed, data/inst
system.cpu.dtb.walker.walks                         0                       # Table walker walks requested
system.cpu.dtb.write_accesses                       0                       # DTB write accesses
system.cpu.dtb.write_hits                           0                       # DTB write hits
system.cpu.dtb.write_misses                         0                       # DTB write misses
system.cpu.fetch2.amo_instructions                  0                       # Number of memory atomic instructions successfully decoded
system.cpu.fetch2.fp_instructions                   0                       # Number of floating point instructions successfully decoded
system.cpu.fetch2.int_instructions           49082952                       # Number of integer instructions successfully decoded
system.cpu.fetch2.load_instructions          17523756                       # Number of memory load instructions successfully decoded
system.cpu.fetch2.store_instructions         10083640                       # Number of memory store instructions successfully decoded
system.cpu.fetch2.vec_instructions                  0                       # Number of SIMD instructions successfully decoded
system.cpu.idleCycles                         3278563                       # Total number of cycles that the object has spent stopped
system.cpu.ipc                               0.911035                       # IPC: instructions per cycle
system.cpu.itb.accesses                             0                       # DTB accesses
system.cpu.itb.align_faults                         0                       # Number of TLB faults due to alignment restrictions
system.cpu.itb.domain_faults                        0                       # Number of TLB faults due to domain restrictions
system.cpu.itb.flush_entries                        0                       # Number of entries that have been flushed from TLB
system.cpu.itb.flush_tlb                            0                       # Number of times complete TLB was flushed
system.cpu.itb.flush_tlb_asid                       0                       # Number of times TLB was flushed by ASID
system.cpu.itb.flush_tlb_mva                        0                       # Number of times TLB was flushed by MVA
system.cpu.itb.flush_tlb_mva_asid                   0                       # Number of times TLB was flushed by MVA & ASID
system.cpu.itb.hits                                 0                       # DTB hits
system.cpu.itb.inst_accesses                        0                       # ITB inst accesses
system.cpu.itb.inst_hits                            0                       # ITB inst hits
system.cpu.itb.inst_misses                          0                       # ITB inst misses
system.cpu.itb.misses                               0                       # DTB misses
system.cpu.itb.perms_faults                         0                       # Number of TLB faults due to permissions restrictions
system.cpu.itb.prefetch_faults                      0                       # Number of TLB faults due to prefetch
system.cpu.itb.read_accesses                        0                       # DTB read accesses
system.cpu.itb.read_hits                            0                       # DTB read hits
system.cpu.itb.read_misses                          0                       # DTB read misses
system.cpu.itb.stage2_mmu.stage2_tlb.accesses            0                       # DTB accesses
system.cpu.itb.stage2_mmu.stage2_tlb.align_faults            0                       # Number of TLB faults due to alignment restrictions
system.cpu.itb.stage2_mmu.stage2_tlb.domain_faults            0                       # Number of TLB faults due to domain restrictions
system.cpu.itb.stage2_mmu.stage2_tlb.flush_entries            0                       # Number of entries that have been flushed from TLB
system.cpu.itb.stage2_mmu.stage2_tlb.flush_tlb            0                       # Number of times complete TLB was flushed
system.cpu.itb.stage2_mmu.stage2_tlb.flush_tlb_asid            0                       # Number of times TLB was flushed by ASID
system.cpu.itb.stage2_mmu.stage2_tlb.flush_tlb_mva            0                       # Number of times TLB was flushed by MVA
system.cpu.itb.stage2_mmu.stage2_tlb.flush_tlb_mva_asid            0                       # Number of times TLB was flushed by MVA & ASID
system.cpu.itb.stage2_mmu.stage2_tlb.hits            0                       # DTB hits
system.cpu.itb.stage2_mmu.stage2_tlb.inst_accesses            0                       # ITB inst accesses
system.cpu.itb.stage2_mmu.stage2_tlb.inst_hits            0                       # ITB inst hits
system.cpu.itb.stage2_mmu.stage2_tlb.inst_misses            0                       # ITB inst misses
system.cpu.itb.stage2_mmu.stage2_tlb.misses            0                       # DTB misses
system.cpu.itb.stage2_mmu.stage2_tlb.perms_faults            0                       # Number of TLB faults due to permissions restrictions
system.cpu.itb.stage2_mmu.stage2_tlb.prefetch_faults            0                       # Number of TLB faults due to prefetch
system.cpu.itb.stage2_mmu.stage2_tlb.read_accesses            0                       # DTB read accesses
system.cpu.itb.stage2_mmu.stage2_tlb.read_hits            0                       # DTB read hits
system.cpu.itb.stage2_mmu.stage2_tlb.read_misses            0                       # DTB read misses
system.cpu.itb.stage2_mmu.stage2_tlb.walker.walkRequestOrigin_Requested::Data            0                       # Table walker requests started/completed, data/inst
system.cpu.itb.stage2_mmu.stage2_tlb.walker.walkRequestOrigin_Requested::Inst            0                       # Table walker requests started/completed, data/inst
system.cpu.itb.stage2_mmu.stage2_tlb.walker.walkRequestOrigin_Requested::total            0                       # Table walker requests started/completed, data/inst
system.cpu.itb.stage2_mmu.stage2_tlb.walker.walkRequestOrigin_Completed::Data            0                       # Table walker requests started/completed, data/inst
system.cpu.itb.stage2_mmu.stage2_tlb.walker.walkRequestOrigin_Completed::Inst            0                       # Table walker requests started/completed, data/inst
system.cpu.itb.stage2_mmu.stage2_tlb.walker.walkRequestOrigin_Completed::total            0                       # Table walker requests started/completed, data/inst
system.cpu.itb.stage2_mmu.stage2_tlb.walker.walkRequestOrigin::total            0                       # Table walker requests started/completed, data/inst
system.cpu.itb.stage2_mmu.stage2_tlb.walker.walks            0                       # Table walker walks requested
system.cpu.itb.stage2_mmu.stage2_tlb.write_accesses            0                       # DTB write accesses
system.cpu.itb.stage2_mmu.stage2_tlb.write_hits            0                       # DTB write hits
system.cpu.itb.stage2_mmu.stage2_tlb.write_misses            0                       # DTB write misses
system.cpu.itb.walker.walkRequestOrigin_Requested::Data            0                       # Table walker requests started/completed, data/inst
system.cpu.itb.walker.walkRequestOrigin_Requested::Inst            0                       # Table walker requests started/completed, data/inst
system.cpu.itb.walker.walkRequestOrigin_Requested::total            0                       # Table walker requests started/completed, data/inst
system.cpu.itb.walker.walkRequestOrigin_Completed::Data            0                       # Table walker requests started/completed, data/inst
system.cpu.itb.walker.walkRequestOrigin_Completed::Inst            0                       # Table walker requests started/completed, data/inst
system.cpu.itb.walker.walkRequestOrigin_Completed::total            0                       # Table walker requests started/completed, data/inst
system.cpu.itb.walker.walkRequestOrigin::total            0                       # Table walker requests started/completed, data/inst
system.cpu.itb.walker.walks                         0                       # Table walker walks requested
system.cpu.itb.write_accesses                       0                       # DTB write accesses
system.cpu.itb.write_hits                           0                       # DTB write hits
system.cpu.itb.write_misses                         0                       # DTB write misses
system.cpu.numCycles                        109765290                       # number of cpu cycles simulated
system.cpu.numFetchSuspends                         0                       # Number of times Execute suspended instruction fetching
system.cpu.numWorkItemsCompleted                    0                       # number of work items this cpu completed
system.cpu.numWorkItemsStarted                      0                       # number of work items this cpu started
system.cpu.op_class_0::No_OpClass                   0      0.00%      0.00% # Class of committed instruction
system.cpu.op_class_0::IntAlu                72223173     66.18%     66.18% # Class of committed instruction
system.cpu.op_class_0::IntMult                 547032      0.50%     66.68% # Class of committed instruction
system.cpu.op_class_0::IntDiv                       0      0.00%     66.68% # Class of committed instruction
system.cpu.op_class_0::FloatAdd                     0      0.00%     66.68% # Class of committed instruction
system.cpu.op_class_0::FloatCmp                     0      0.00%     66.68% # Class of committed instruction
system.cpu.op_class_0::FloatCvt                     0      0.00%     66.68% # Class of committed instruction
system.cpu.op_class_0::FloatMult                    0      0.00%     66.68% # Class of committed instruction
system.cpu.op_class_0::FloatMultAcc                 0      0.00%     66.68% # Class of committed instruction
system.cpu.op_class_0::FloatDiv                     0      0.00%     66.68% # Class of committed instruction
system.cpu.op_class_0::FloatMisc                    0      0.00%     66.68% # Class of committed instruction
system.cpu.op_class_0::FloatSqrt                    0      0.00%     66.68% # Class of committed instruction
system.cpu.op_class_0::SimdAdd                 231656      0.21%     66.89% # Class of committed instruction
system.cpu.op_class_0::SimdAddAcc                   0      0.00%     66.89% # Class of committed instruction
system.cpu.op_class_0::SimdAlu                 148482      0.14%     67.02% # Class of committed instruction
system.cpu.op_class_0::SimdCmp                 115828      0.11%     67.13% # Class of committed instruction
system.cpu.op_class_0::SimdCvt                      0      0.00%     67.13% # Class of committed instruction
system.cpu.op_class_0::SimdMisc                 42808      0.04%     67.17% # Class of committed instruction
system.cpu.op_class_0::SimdMult                     0      0.00%     67.17% # Class of committed instruction
system.cpu.op_class_0::SimdMultAcc                  0      0.00%     67.17% # Class of committed instruction
system.cpu.op_class_0::SimdShift                    0      0.00%     67.17% # Class of committed instruction
system.cpu.op_class_0::SimdShiftAcc                 0      0.00%     67.17% # Class of committed instruction
system.cpu.op_class_0::SimdDiv                      0      0.00%     67.17% # Class of committed instruction
system.cpu.op_class_0::SimdSqrt                     0      0.00%     67.17% # Class of committed instruction
system.cpu.op_class_0::SimdFloatAdd                 0      0.00%     67.17% # Class of committed instruction
system.cpu.op_class_0::SimdFloatAlu                 0      0.00%     67.17% # Class of committed instruction
system.cpu.op_class_0::SimdFloatCmp                 0      0.00%     67.17% # Class of committed instruction
system.cpu.op_class_0::SimdFloatCvt                 0      0.00%     67.17% # Class of committed instruction
system.cpu.op_class_0::SimdFloatDiv                 0      0.00%     67.17% # Class of committed instruction
system.cpu.op_class_0::SimdFloatMisc           159857      0.15%     67.32% # Class of committed instruction
system.cpu.op_class_0::SimdFloatMult                0      0.00%     67.32% # Class of committed instruction
system.cpu.op_class_0::SimdFloatMultAcc             0      0.00%     67.32% # Class of committed instruction
system.cpu.op_class_0::SimdFloatSqrt                0      0.00%     67.32% # Class of committed instruction
system.cpu.op_class_0::SimdReduceAdd                0      0.00%     67.32% # Class of committed instruction
system.cpu.op_class_0::SimdReduceAlu                0      0.00%     67.32% # Class of committed instruction
system.cpu.op_class_0::SimdReduceCmp                0      0.00%     67.32% # Class of committed instruction
system.cpu.op_class_0::SimdFloatReduceAdd            0      0.00%     67.32% # Class of committed instruction
system.cpu.op_class_0::SimdFloatReduceCmp            0      0.00%     67.32% # Class of committed instruction
system.cpu.op_class_0::SimdAes                      0      0.00%     67.32% # Class of committed instruction
system.cpu.op_class_0::SimdAesMix                   0      0.00%     67.32% # Class of committed instruction
system.cpu.op_class_0::SimdSha1Hash                 0      0.00%     67.32% # Class of committed instruction
system.cpu.op_class_0::SimdSha1Hash2                0      0.00%     67.32% # Class of committed instruction
system.cpu.op_class_0::SimdSha256Hash               0      0.00%     67.32% # Class of committed instruction
system.cpu.op_class_0::SimdSha256Hash2              0      0.00%     67.32% # Class of committed instruction
system.cpu.op_class_0::SimdShaSigma2                0      0.00%     67.32% # Class of committed instruction
system.cpu.op_class_0::SimdShaSigma3                0      0.00%     67.32% # Class of committed instruction
system.cpu.op_class_0::SimdPredAlu                  0      0.00%     67.32% # Class of committed instruction
system.cpu.op_class_0::MemRead               20932798     19.18%     86.50% # Class of committed instruction
system.cpu.op_class_0::MemWrite              14737790     13.50%    100.00% # Class of committed instruction
system.cpu.op_class_0::FloatMemRead                 0      0.00%    100.00% # Class of committed instruction
system.cpu.op_class_0::FloatMemWrite                0      0.00%    100.00% # Class of committed instruction
system.cpu.op_class_0::IprAccess                    0      0.00%    100.00% # Class of committed instruction
system.cpu.op_class_0::InstPrefetch                 0      0.00%    100.00% # Class of committed instruction
system.cpu.op_class_0::total                109139424                       # Class of committed instruction
system.cpu.tickCycles                       106486727                       # Number of cycles that the object actually ticked
system.cpu.workload.numSyscalls                    85                       # Number of system calls
system.membus.snoop_filter.hit_multi_requests            0                       # Number of requests hitting in the snoop filter with multiple (>1) holders of the requested data.
system.membus.snoop_filter.hit_multi_snoops            0                       # Number of snoops hitting in the snoop filter with multiple (>1) holders of the requested data.
system.membus.snoop_filter.hit_single_requests        37221                       # Number of requests hitting in the snoop filter with a single holder of the requested data.
system.membus.snoop_filter.hit_single_snoops            0                       # Number of snoops hitting in the snoop filter with a single holder of the requested data.
system.membus.snoop_filter.tot_requests         83017                       # Total number of requests made to the snoop filter.
system.membus.snoop_filter.tot_snoops               0                       # Total number of snoops made to the snoop filter.
system.tol2bus.snoop_filter.hit_multi_requests          221                       # Number of requests hitting in the snoop filter with multiple (>1) holders of the requested data.
system.tol2bus.snoop_filter.hit_multi_snoops           54                       # Number of snoops hitting in the snoop filter with multiple (>1) holders of the requested data.
system.tol2bus.snoop_filter.hit_single_requests        55556                       # Number of requests hitting in the snoop filter with a single holder of the requested data.
system.tol2bus.snoop_filter.hit_single_snoops         4182                       # Number of snoops hitting in the snoop filter with a single holder of the requested data.
system.tol2bus.snoop_filter.tot_requests       113598                       # Total number of requests made to the snoop filter.
system.tol2bus.snoop_filter.tot_snoops           4236                       # Total number of snoops made to the snoop filter.
system.membus.pwrStateResidencyTicks::UNDEFINED 109765290000                       # Cumulative time (in ticks) in various power states
system.membus.trans_dist::ReadResp               7909                       # Transaction distribution
system.membus.trans_dist::WritebackDirty        36347                       # Transaction distribution
system.membus.trans_dist::CleanEvict              820                       # Transaction distribution
system.membus.trans_dist::ReadExReq             37941                       # Transaction distribution
system.membus.trans_dist::ReadExResp            37941                       # Transaction distribution
system.membus.trans_dist::ReadSharedReq          7909                       # Transaction distribution
system.membus.pkt_count_system.l2.mem_side::system.mem_ctrls.port       128867                       # Packet count per connected master and slave (bytes)
system.membus.pkt_count::total                 128867                       # Packet count per connected master and slave (bytes)
system.membus.pkt_size_system.l2.mem_side::system.mem_ctrls.port      5260608                       # Cumulative packet size per connected master and slave (bytes)
system.membus.pkt_size::total                 5260608                       # Cumulative packet size per connected master and slave (bytes)
system.membus.snoops                                0                       # Total snoops (count)
system.membus.snoopTraffic                          0                       # Total snoop traffic (bytes)
system.membus.snoop_fanout::samples             45850                       # Request fanout histogram
system.membus.snoop_fanout::mean                    0                       # Request fanout histogram
system.membus.snoop_fanout::stdev                   0                       # Request fanout histogram
system.membus.snoop_fanout::underflows              0      0.00%      0.00% # Request fanout histogram
system.membus.snoop_fanout::0                   45850    100.00%    100.00% # Request fanout histogram
system.membus.snoop_fanout::1                       0      0.00%    100.00% # Request fanout histogram
system.membus.snoop_fanout::overflows               0      0.00%    100.00% # Request fanout histogram
system.membus.snoop_fanout::min_value               0                       # Request fanout histogram
system.membus.snoop_fanout::max_value               0                       # Request fanout histogram
system.membus.snoop_fanout::total               45850                       # Request fanout histogram
system.membus.respLayer1.occupancy          247767000                       # Layer occupancy (ticks)
system.membus.respLayer1.utilization              0.2                       # Layer utilization (%)
system.membus.reqLayer0.occupancy           228405000                       # Layer occupancy (ticks)
system.membus.reqLayer0.utilization               0.2                       # Layer utilization (%)
system.tol2bus.pwrStateResidencyTicks::UNDEFINED 109765290000                       # Cumulative time (in ticks) in various power states
system.tol2bus.trans_dist::ReadResp             18089                       # Transaction distribution
system.tol2bus.trans_dist::WritebackDirty        87545                       # Transaction distribution
system.tol2bus.trans_dist::WritebackClean          490                       # Transaction distribution
system.tol2bus.trans_dist::CleanEvict            8369                       # Transaction distribution
system.tol2bus.trans_dist::ReadExReq            39955                       # Transaction distribution
system.tol2bus.trans_dist::ReadExResp           39955                       # Transaction distribution
system.tol2bus.trans_dist::ReadCleanReq           932                       # Transaction distribution
system.tol2bus.trans_dist::ReadSharedReq        17157                       # Transaction distribution
system.tol2bus.pkt_count_system.cpu.icache.mem_side::system.l2.cpu_side         2354                       # Packet count per connected master and slave (bytes)
system.tol2bus.pkt_count_system.cpu.dcache.mem_side::system.l2.cpu_side       169288                       # Packet count per connected master and slave (bytes)
system.tol2bus.pkt_count::total                171642                       # Packet count per connected master and slave (bytes)
system.tol2bus.pkt_size_system.cpu.icache.mem_side::system.l2.cpu_side        91008                       # Cumulative packet size per connected master and slave (bytes)
system.tol2bus.pkt_size_system.cpu.dcache.mem_side::system.l2.cpu_side      6931840                       # Cumulative packet size per connected master and slave (bytes)
system.tol2bus.pkt_size::total                7022848                       # Cumulative packet size per connected master and slave (bytes)
system.tol2bus.snoops                           40850                       # Total snoops (count)
system.tol2bus.snoopTraffic                   2326208                       # Total snoop traffic (bytes)
system.tol2bus.snoop_fanout::samples            98894                       # Request fanout histogram
system.tol2bus.snoop_fanout::mean            0.045635                       # Request fanout histogram
system.tol2bus.snoop_fanout::stdev           0.211293                       # Request fanout histogram
system.tol2bus.snoop_fanout::underflows             0      0.00%      0.00% # Request fanout histogram
system.tol2bus.snoop_fanout::0                  94435     95.49%     95.49% # Request fanout histogram
system.tol2bus.snoop_fanout::1                   4405      4.45%     99.95% # Request fanout histogram
system.tol2bus.snoop_fanout::2                     54      0.05%    100.00% # Request fanout histogram
system.tol2bus.snoop_fanout::overflows              0      0.00%    100.00% # Request fanout histogram
system.tol2bus.snoop_fanout::min_value              0                       # Request fanout histogram
system.tol2bus.snoop_fanout::max_value              2                       # Request fanout histogram
system.tol2bus.snoop_fanout::total              98894                       # Request fanout histogram
system.tol2bus.reqLayer0.occupancy          216974000                       # Layer occupancy (ticks)
system.tol2bus.reqLayer0.utilization              0.2                       # Layer utilization (%)
system.tol2bus.respLayer1.occupancy         171336999                       # Layer occupancy (ticks)
system.tol2bus.respLayer1.utilization             0.2                       # Layer utilization (%)
system.tol2bus.respLayer0.occupancy           2796999                       # Layer occupancy (ticks)
system.tol2bus.respLayer0.utilization             0.0                       # Layer utilization (%)
system.voltage_domain.voltage                       1                       # Voltage in Volts
system.clk_domain.clock                          1000                       # Clock period in ticks
system.l2.pwrStateResidencyTicks::UNDEFINED 109765290000                       # Cumulative time (in ticks) in various power states
system.l2.demand_hits::.cpu.inst                  409                       # number of demand (read+write) hits
system.l2.demand_hits::.cpu.data                11783                       # number of demand (read+write) hits
system.l2.demand_hits::total                    12192                       # number of demand (read+write) hits
system.l2.overall_hits::.cpu.inst                 409                       # number of overall hits
system.l2.overall_hits::.cpu.data               11783                       # number of overall hits
system.l2.overall_hits::total                   12192                       # number of overall hits
system.l2.demand_misses::.cpu.inst                523                       # number of demand (read+write) misses
system.l2.demand_misses::.cpu.data              45329                       # number of demand (read+write) misses
system.l2.demand_misses::total                  45852                       # number of demand (read+write) misses
system.l2.overall_misses::.cpu.inst               523                       # number of overall misses
system.l2.overall_misses::.cpu.data             45329                       # number of overall misses
system.l2.overall_misses::total                 45852                       # number of overall misses
system.l2.demand_miss_latency::.cpu.inst     50957000                       # number of demand (read+write) miss cycles
system.l2.demand_miss_latency::.cpu.data   4892167000                       # number of demand (read+write) miss cycles
system.l2.demand_miss_latency::total       4943124000                       # number of demand (read+write) miss cycles
system.l2.overall_miss_latency::.cpu.inst     50957000                       # number of overall miss cycles
system.l2.overall_miss_latency::.cpu.data   4892167000                       # number of overall miss cycles
system.l2.overall_miss_latency::total      4943124000                       # number of overall miss cycles
system.l2.demand_accesses::.cpu.inst              932                       # number of demand (read+write) accesses
system.l2.demand_accesses::.cpu.data            57112                       # number of demand (read+write) accesses
system.l2.demand_accesses::total                58044                       # number of demand (read+write) accesses
system.l2.overall_accesses::.cpu.inst             932                       # number of overall (read+write) accesses
system.l2.overall_accesses::.cpu.data           57112                       # number of overall (read+write) accesses
system.l2.overall_accesses::total               58044                       # number of overall (read+write) accesses
system.l2.demand_miss_rate::.cpu.inst        0.561159                       # miss rate for demand accesses
system.l2.demand_miss_rate::.cpu.data        0.793686                       # miss rate for demand accesses
system.l2.demand_miss_rate::total            0.789952                       # miss rate for demand accesses
system.l2.overall_miss_rate::.cpu.inst       0.561159                       # miss rate for overall accesses
system.l2.overall_miss_rate::.cpu.data       0.793686                       # miss rate for overall accesses
system.l2.overall_miss_rate::total           0.789952                       # miss rate for overall accesses
system.l2.demand_avg_miss_latency::.cpu.inst 97432.122371                       # average overall miss latency
system.l2.demand_avg_miss_latency::.cpu.data 107925.764963                       # average overall miss latency
system.l2.demand_avg_miss_latency::total 107806.071709                       # average overall miss latency
system.l2.overall_avg_miss_latency::.cpu.inst 97432.122371                       # average overall miss latency
system.l2.overall_avg_miss_latency::.cpu.data 107925.764963                       # average overall miss latency
system.l2.overall_avg_miss_latency::total 107806.071709                       # average overall miss latency
system.l2.blocked_cycles::no_mshrs                  0                       # number of cycles access was blocked
system.l2.blocked_cycles::no_targets                0                       # number of cycles access was blocked
system.l2.blocked::no_mshrs                         0                       # number of cycles access was blocked
system.l2.blocked::no_targets                       0                       # number of cycles access was blocked
system.l2.avg_blocked_cycles::no_mshrs            nan                       # average number of cycles each access was blocked
system.l2.avg_blocked_cycles::no_targets          nan                       # average number of cycles each access was blocked
system.l2.writebacks::.writebacks               36347                       # number of writebacks
system.l2.writebacks::total                     36347                       # number of writebacks
system.l2.demand_mshr_hits::.cpu.inst               1                       # number of demand (read+write) MSHR hits
system.l2.demand_mshr_hits::.cpu.data               1                       # number of demand (read+write) MSHR hits
system.l2.demand_mshr_hits::total                   2                       # number of demand (read+write) MSHR hits
system.l2.overall_mshr_hits::.cpu.inst              1                       # number of overall MSHR hits
system.l2.overall_mshr_hits::.cpu.data              1                       # number of overall MSHR hits
system.l2.overall_mshr_hits::total                  2                       # number of overall MSHR hits
system.l2.demand_mshr_misses::.cpu.inst           522                       # number of demand (read+write) MSHR misses
system.l2.demand_mshr_misses::.cpu.data         45328                       # number of demand (read+write) MSHR misses
system.l2.demand_mshr_misses::total             45850                       # number of demand (read+write) MSHR misses
system.l2.overall_mshr_misses::.cpu.inst          522                       # number of overall MSHR misses
system.l2.overall_mshr_misses::.cpu.data        45328                       # number of overall MSHR misses
system.l2.overall_mshr_misses::total            45850                       # number of overall MSHR misses
system.l2.demand_mshr_miss_latency::.cpu.inst     40443000                       # number of demand (read+write) MSHR miss cycles
system.l2.demand_mshr_miss_latency::.cpu.data   3985520000                       # number of demand (read+write) MSHR miss cycles
system.l2.demand_mshr_miss_latency::total   4025963000                       # number of demand (read+write) MSHR miss cycles
system.l2.overall_mshr_miss_latency::.cpu.inst     40443000                       # number of overall MSHR miss cycles
system.l2.overall_mshr_miss_latency::.cpu.data   3985520000                       # number of overall MSHR miss cycles
system.l2.overall_mshr_miss_latency::total   4025963000                       # number of overall MSHR miss cycles
system.l2.demand_mshr_miss_rate::.cpu.inst     0.560086                       # mshr miss rate for demand accesses
system.l2.demand_mshr_miss_rate::.cpu.data     0.793669                       # mshr miss rate for demand accesses
system.l2.demand_mshr_miss_rate::total       0.789918                       # mshr miss rate for demand accesses
system.l2.overall_mshr_miss_rate::.cpu.inst     0.560086                       # mshr miss rate for overall accesses
system.l2.overall_mshr_miss_rate::.cpu.data     0.793669                       # mshr miss rate for overall accesses
system.l2.overall_mshr_miss_rate::total      0.789918                       # mshr miss rate for overall accesses
system.l2.demand_avg_mshr_miss_latency::.cpu.inst 77477.011494                       # average overall mshr miss latency
system.l2.demand_avg_mshr_miss_latency::.cpu.data 87926.226615                       # average overall mshr miss latency
system.l2.demand_avg_mshr_miss_latency::total 87807.262814                       # average overall mshr miss latency
system.l2.overall_avg_mshr_miss_latency::.cpu.inst 77477.011494                       # average overall mshr miss latency
system.l2.overall_avg_mshr_miss_latency::.cpu.data 87926.226615                       # average overall mshr miss latency
system.l2.overall_avg_mshr_miss_latency::total 87807.262814                       # average overall mshr miss latency
system.l2.replacements                          40850                       # number of replacements
system.l2.WritebackDirty_hits::.writebacks        51198                       # number of WritebackDirty hits
system.l2.WritebackDirty_hits::total            51198                       # number of WritebackDirty hits
system.l2.WritebackDirty_accesses::.writebacks        51198                       # number of WritebackDirty accesses(hits+misses)
system.l2.WritebackDirty_accesses::total        51198                       # number of WritebackDirty accesses(hits+misses)
system.l2.WritebackClean_hits::.writebacks          489                       # number of WritebackClean hits
system.l2.WritebackClean_hits::total              489                       # number of WritebackClean hits
system.l2.WritebackClean_accesses::.writebacks          489                       # number of WritebackClean accesses(hits+misses)
system.l2.WritebackClean_accesses::total          489                       # number of WritebackClean accesses(hits+misses)
system.l2.CleanEvict_mshr_misses::.writebacks          553                       # number of CleanEvict MSHR misses
system.l2.CleanEvict_mshr_misses::total           553                       # number of CleanEvict MSHR misses
system.l2.CleanEvict_mshr_miss_rate::.writebacks          inf                       # mshr miss rate for CleanEvict accesses
system.l2.CleanEvict_mshr_miss_rate::total          inf                       # mshr miss rate for CleanEvict accesses
system.l2.ReadExReq_hits::.cpu.data              2014                       # number of ReadExReq hits
system.l2.ReadExReq_hits::total                  2014                       # number of ReadExReq hits
system.l2.ReadExReq_misses::.cpu.data           37941                       # number of ReadExReq misses
system.l2.ReadExReq_misses::total               37941                       # number of ReadExReq misses
system.l2.ReadExReq_miss_latency::.cpu.data   4062840000                       # number of ReadExReq miss cycles
system.l2.ReadExReq_miss_latency::total    4062840000                       # number of ReadExReq miss cycles
system.l2.ReadExReq_accesses::.cpu.data         39955                       # number of ReadExReq accesses(hits+misses)
system.l2.ReadExReq_accesses::total             39955                       # number of ReadExReq accesses(hits+misses)
system.l2.ReadExReq_miss_rate::.cpu.data     0.949593                       # miss rate for ReadExReq accesses
system.l2.ReadExReq_miss_rate::total         0.949593                       # miss rate for ReadExReq accesses
system.l2.ReadExReq_avg_miss_latency::.cpu.data 107083.102712                       # average ReadExReq miss latency
system.l2.ReadExReq_avg_miss_latency::total 107083.102712                       # average ReadExReq miss latency
system.l2.ReadExReq_mshr_misses::.cpu.data        37941                       # number of ReadExReq MSHR misses
system.l2.ReadExReq_mshr_misses::total          37941                       # number of ReadExReq MSHR misses
system.l2.ReadExReq_mshr_miss_latency::.cpu.data   3304020000                       # number of ReadExReq MSHR miss cycles
system.l2.ReadExReq_mshr_miss_latency::total   3304020000                       # number of ReadExReq MSHR miss cycles
system.l2.ReadExReq_mshr_miss_rate::.cpu.data     0.949593                       # mshr miss rate for ReadExReq accesses
system.l2.ReadExReq_mshr_miss_rate::total     0.949593                       # mshr miss rate for ReadExReq accesses
system.l2.ReadExReq_avg_mshr_miss_latency::.cpu.data 87083.102712                       # average ReadExReq mshr miss latency
system.l2.ReadExReq_avg_mshr_miss_latency::total 87083.102712                       # average ReadExReq mshr miss latency
system.l2.ReadCleanReq_hits::.cpu.inst            409                       # number of ReadCleanReq hits
system.l2.ReadCleanReq_hits::total                409                       # number of ReadCleanReq hits
system.l2.ReadCleanReq_misses::.cpu.inst          523                       # number of ReadCleanReq misses
system.l2.ReadCleanReq_misses::total              523                       # number of ReadCleanReq misses
system.l2.ReadCleanReq_miss_latency::.cpu.inst     50957000                       # number of ReadCleanReq miss cycles
system.l2.ReadCleanReq_miss_latency::total     50957000                       # number of ReadCleanReq miss cycles
system.l2.ReadCleanReq_accesses::.cpu.inst          932                       # number of ReadCleanReq accesses(hits+misses)
system.l2.ReadCleanReq_accesses::total            932                       # number of ReadCleanReq accesses(hits+misses)
system.l2.ReadCleanReq_miss_rate::.cpu.inst     0.561159                       # miss rate for ReadCleanReq accesses
system.l2.ReadCleanReq_miss_rate::total      0.561159                       # miss rate for ReadCleanReq accesses
system.l2.ReadCleanReq_avg_miss_latency::.cpu.inst 97432.122371                       # average ReadCleanReq miss latency
system.l2.ReadCleanReq_avg_miss_latency::total 97432.122371                       # average ReadCleanReq miss latency
system.l2.ReadCleanReq_mshr_hits::.cpu.inst            1                       # number of ReadCleanReq MSHR hits
system.l2.ReadCleanReq_mshr_hits::total             1                       # number of ReadCleanReq MSHR hits
system.l2.ReadCleanReq_mshr_misses::.cpu.inst          522                       # number of ReadCleanReq MSHR misses
system.l2.ReadCleanReq_mshr_misses::total          522                       # number of ReadCleanReq MSHR misses
system.l2.ReadCleanReq_mshr_miss_latency::.cpu.inst     40443000                       # number of ReadCleanReq MSHR miss cycles
system.l2.ReadCleanReq_mshr_miss_latency::total     40443000                       # number of ReadCleanReq MSHR miss cycles
system.l2.ReadCleanReq_mshr_miss_rate::.cpu.inst     0.560086                       # mshr miss rate for ReadCleanReq accesses
system.l2.ReadCleanReq_mshr_miss_rate::total     0.560086                       # mshr miss rate for ReadCleanReq accesses
system.l2.ReadCleanReq_avg_mshr_miss_latency::.cpu.inst 77477.011494                       # average ReadCleanReq mshr miss latency
system.l2.ReadCleanReq_avg_mshr_miss_latency::total 77477.011494                       # average ReadCleanReq mshr miss latency
system.l2.ReadSharedReq_hits::.cpu.data          9769                       # number of ReadSharedReq hits
system.l2.ReadSharedReq_hits::total              9769                       # number of ReadSharedReq hits
system.l2.ReadSharedReq_misses::.cpu.data         7388                       # number of ReadSharedReq misses
system.l2.ReadSharedReq_misses::total            7388                       # number of ReadSharedReq misses
system.l2.ReadSharedReq_miss_latency::.cpu.data    829327000                       # number of ReadSharedReq miss cycles
system.l2.ReadSharedReq_miss_latency::total    829327000                       # number of ReadSharedReq miss cycles
system.l2.ReadSharedReq_accesses::.cpu.data        17157                       # number of ReadSharedReq accesses(hits+misses)
system.l2.ReadSharedReq_accesses::total         17157                       # number of ReadSharedReq accesses(hits+misses)
system.l2.ReadSharedReq_miss_rate::.cpu.data     0.430611                       # miss rate for ReadSharedReq accesses
system.l2.ReadSharedReq_miss_rate::total     0.430611                       # miss rate for ReadSharedReq accesses
system.l2.ReadSharedReq_avg_miss_latency::.cpu.data 112253.248511                       # average ReadSharedReq miss latency
system.l2.ReadSharedReq_avg_miss_latency::total 112253.248511                       # average ReadSharedReq miss latency
system.l2.ReadSharedReq_mshr_hits::.cpu.data            1                       # number of ReadSharedReq MSHR hits
system.l2.ReadSharedReq_mshr_hits::total            1                       # number of ReadSharedReq MSHR hits
system.l2.ReadSharedReq_mshr_misses::.cpu.data         7387                       # number of ReadSharedReq MSHR misses
system.l2.ReadSharedReq_mshr_misses::total         7387                       # number of ReadSharedReq MSHR misses
system.l2.ReadSharedReq_mshr_miss_latency::.cpu.data    681500000                       # number of ReadSharedReq MSHR miss cycles
system.l2.ReadSharedReq_mshr_miss_latency::total    681500000                       # number of ReadSharedReq MSHR miss cycles
system.l2.ReadSharedReq_mshr_miss_rate::.cpu.data     0.430553                       # mshr miss rate for ReadSharedReq accesses
system.l2.ReadSharedReq_mshr_miss_rate::total     0.430553                       # mshr miss rate for ReadSharedReq accesses
system.l2.ReadSharedReq_avg_mshr_miss_latency::.cpu.data 92256.667118                       # average ReadSharedReq mshr miss latency
system.l2.ReadSharedReq_avg_mshr_miss_latency::total 92256.667118                       # average ReadSharedReq mshr miss latency
system.l2.tags.pwrStateResidencyTicks::UNDEFINED 109765290000                       # Cumulative time (in ticks) in various power states
system.l2.tags.tagsinuse                  7964.156428                       # Cycle average of tags in use
system.l2.tags.total_refs                      112822                       # Total number of references to valid blocks.
system.l2.tags.sampled_refs                     49042                       # Sample count of references to valid blocks.
system.l2.tags.avg_refs                      2.300518                       # Average number of references to valid blocks.
system.l2.tags.warmup_cycle                     87000                       # Cycle when the warmup percentage was hit.
system.l2.tags.occ_blocks::.writebacks     259.815628                       # Average occupied blocks per requestor
system.l2.tags.occ_blocks::.cpu.inst        18.641735                       # Average occupied blocks per requestor
system.l2.tags.occ_blocks::.cpu.data      7685.699065                       # Average occupied blocks per requestor
system.l2.tags.occ_percent::.writebacks      0.031716                       # Average percentage of cache occupancy
system.l2.tags.occ_percent::.cpu.inst        0.002276                       # Average percentage of cache occupancy
system.l2.tags.occ_percent::.cpu.data        0.938196                       # Average percentage of cache occupancy
system.l2.tags.occ_percent::total            0.972187                       # Average percentage of cache occupancy
system.l2.tags.occ_task_id_blocks::1024          8192                       # Occupied blocks per task id
system.l2.tags.age_task_id_blocks_1024::0            4                       # Occupied blocks per task id
system.l2.tags.age_task_id_blocks_1024::1           20                       # Occupied blocks per task id
system.l2.tags.age_task_id_blocks_1024::2          229                       # Occupied blocks per task id
system.l2.tags.age_task_id_blocks_1024::3         2513                       # Occupied blocks per task id
system.l2.tags.age_task_id_blocks_1024::4         5426                       # Occupied blocks per task id
system.l2.tags.occ_task_id_percent::1024            1                       # Percentage of cache occupancy per task id
system.l2.tags.tag_accesses                    275796                       # Number of tag accesses
system.l2.tags.data_accesses                   275796                       # Number of data accesses
system.cpu_voltage_domain.voltage                   1                       # Voltage in Volts
system.mem_ctrls.pwrStateResidencyTicks::UNDEFINED 109765290000                       # Cumulative time (in ticks) in various power states
system.mem_ctrls.bytes_read::.cpu.inst          33408                       # Number of bytes read from this memory
system.mem_ctrls.bytes_read::.cpu.data        2900992                       # Number of bytes read from this memory
system.mem_ctrls.bytes_read::total            2934400                       # Number of bytes read from this memory
system.mem_ctrls.bytes_inst_read::.cpu.inst        33408                       # Number of instructions bytes read from this memory
system.mem_ctrls.bytes_inst_read::total         33408                       # Number of instructions bytes read from this memory
system.mem_ctrls.bytes_written::.writebacks      2326208                       # Number of bytes written to this memory
system.mem_ctrls.bytes_written::total         2326208                       # Number of bytes written to this memory
system.mem_ctrls.num_reads::.cpu.inst             522                       # Number of read requests responded to by this memory
system.mem_ctrls.num_reads::.cpu.data           45328                       # Number of read requests responded to by this memory
system.mem_ctrls.num_reads::total               45850                       # Number of read requests responded to by this memory
system.mem_ctrls.num_writes::.writebacks        36347                       # Number of write requests responded to by this memory
system.mem_ctrls.num_writes::total              36347                       # Number of write requests responded to by this memory
system.mem_ctrls.bw_read::.cpu.inst            304359                       # Total read bandwidth from this memory (bytes/s)
system.mem_ctrls.bw_read::.cpu.data          26429047                       # Total read bandwidth from this memory (bytes/s)
system.mem_ctrls.bw_read::total              26733405                       # Total read bandwidth from this memory (bytes/s)
system.mem_ctrls.bw_inst_read::.cpu.inst       304359                       # Instruction read bandwidth from this memory (bytes/s)
system.mem_ctrls.bw_inst_read::total           304359                       # Instruction read bandwidth from this memory (bytes/s)
system.mem_ctrls.bw_write::.writebacks       21192565                       # Write bandwidth from this memory (bytes/s)
system.mem_ctrls.bw_write::total             21192565                       # Write bandwidth from this memory (bytes/s)
system.mem_ctrls.bw_total::.writebacks       21192565                       # Total bandwidth to/from this memory (bytes/s)
system.mem_ctrls.bw_total::.cpu.inst           304359                       # Total bandwidth to/from this memory (bytes/s)
system.mem_ctrls.bw_total::.cpu.data         26429047                       # Total bandwidth to/from this memory (bytes/s)
system.mem_ctrls.bw_total::total             47925970                       # Total bandwidth to/from this memory (bytes/s)
system.mem_ctrls.avgPriority_.writebacks::samples     36347.00                       # Average QoS priority value for accepted requests
system.mem_ctrls.avgPriority_.cpu.inst::samples       522.00                       # Average QoS priority value for accepted requests
system.mem_ctrls.avgPriority_.cpu.data::samples     45301.00                       # Average QoS priority value for accepted requests
system.mem_ctrls.priorityMinLatency      0.000000018750                       # per QoS priority minimum request to response latency (s)
system.mem_ctrls.priorityMaxLatency      0.002762100500                       # per QoS priority maximum request to response latency (s)
system.mem_ctrls.numReadWriteTurnArounds         2030                       # Number of turnarounds from READ to WRITE
system.mem_ctrls.numWriteReadTurnArounds         2030                       # Number of turnarounds from WRITE to READ
system.mem_ctrls.numStayReadState              155566                       # Number of times bus staying in READ state
system.mem_ctrls.numStayWriteState              34356                       # Number of times bus staying in WRITE state
system.mem_ctrls.readReqs                       45850                       # Number of read requests accepted
system.mem_ctrls.writeReqs                      36347                       # Number of write requests accepted
system.mem_ctrls.readBursts                     45850                       # Number of DRAM read bursts, including those serviced by the write queue
system.mem_ctrls.writeBursts                    36347                       # Number of DRAM write bursts, including those merged in the write queue
system.mem_ctrls.servicedByWrQ                     27                       # Number of DRAM read bursts serviced by the write queue
system.mem_ctrls.mergedWrBursts                     0                       # Number of DRAM write bursts merged with an existing one
system.mem_ctrls.neitherReadNorWriteReqs            0                       # Number of requests that are neither read nor write
system.mem_ctrls.perBankRdBursts::0              2746                       # Per bank write bursts
system.mem_ctrls.perBankRdBursts::1              2725                       # Per bank write bursts
system.mem_ctrls.perBankRdBursts::2              3192                       # Per bank write bursts
system.mem_ctrls.perBankRdBursts::3              3485                       # Per bank write bursts
system.mem_ctrls.perBankRdBursts::4              2926                       # Per bank write bursts
system.mem_ctrls.perBankRdBursts::5              2893                       # Per bank write bursts
system.mem_ctrls.perBankRdBursts::6              2866                       # Per bank write bursts
system.mem_ctrls.perBankRdBursts::7              2879                       # Per bank write bursts
system.mem_ctrls.perBankRdBursts::8              2857                       # Per bank write bursts
system.mem_ctrls.perBankRdBursts::9              2718                       # Per bank write bursts
system.mem_ctrls.perBankRdBursts::10             2793                       # Per bank write bursts
system.mem_ctrls.perBankRdBursts::11             2734                       # Per bank write bursts
system.mem_ctrls.perBankRdBursts::12             2708                       # Per bank write bursts
system.mem_ctrls.perBankRdBursts::13             2761                       # Per bank write bursts
system.mem_ctrls.perBankRdBursts::14             2707                       # Per bank write bursts
system.mem_ctrls.perBankRdBursts::15             2833                       # Per bank write bursts
system.mem_ctrls.perBankWrBursts::0              2184                       # Per bank write bursts
system.mem_ctrls.perBankWrBursts::1              2175                       # Per bank write bursts
system.mem_ctrls.perBankWrBursts::2              2396                       # Per bank write bursts
system.mem_ctrls.perBankWrBursts::3              2583                       # Per bank write bursts
system.mem_ctrls.perBankWrBursts::4              2321                       # Per bank write bursts
system.mem_ctrls.perBankWrBursts::5              2327                       # Per bank write bursts
system.mem_ctrls.perBankWrBursts::6              2324                       # Per bank write bursts
system.mem_ctrls.perBankWrBursts::7              2298                       # Per bank write bursts
system.mem_ctrls.perBankWrBursts::8              2279                       # Per bank write bursts
system.mem_ctrls.perBankWrBursts::9              2184                       # Per bank write bursts
system.mem_ctrls.perBankWrBursts::10             2213                       # Per bank write bursts
system.mem_ctrls.perBankWrBursts::11             2202                       # Per bank write bursts
system.mem_ctrls.perBankWrBursts::12             2186                       # Per bank write bursts
system.mem_ctrls.perBankWrBursts::13             2217                       # Per bank write bursts
system.mem_ctrls.perBankWrBursts::14             2189                       # Per bank write bursts
system.mem_ctrls.perBankWrBursts::15             2252                       # Per bank write bursts
system.mem_ctrls.avgRdQLen                       1.06                       # Average read queue length when enqueuing
system.mem_ctrls.avgWrQLen                      24.09                       # Average write queue length when enqueuing
system.mem_ctrls.totQLat                    810043250                       # Total ticks spent queuing
system.mem_ctrls.totBusLat                  229115000                       # Total ticks spent in databus transfers
system.mem_ctrls.totMemAccLat              1669224500                       # Total ticks spent from burst creation until serviced by the DRAM
system.mem_ctrls.avgQLat                     17677.66                       # Average queueing delay per DRAM burst
system.mem_ctrls.avgBusLat                    5000.00                       # Average bus latency per DRAM burst
system.mem_ctrls.avgMemAccLat                36427.66                       # Average memory access latency per DRAM burst
system.mem_ctrls.numRdRetry                         0                       # Number of times read queue was full causing retry
system.mem_ctrls.numWrRetry                         0                       # Number of times write queue was full causing retry
system.mem_ctrls.readRowHits                    18742                       # Number of row buffer hits during reads
system.mem_ctrls.writeRowHits                   26970                       # Number of row buffer hits during writes
system.mem_ctrls.readRowHitRate                 40.90                       # Row buffer hit rate for reads
system.mem_ctrls.writeRowHitRate                74.20                       # Row buffer hit rate for writes
system.mem_ctrls.readPktSize::0                     0                       # Read request sizes (log2)
system.mem_ctrls.readPktSize::1                     0                       # Read request sizes (log2)
system.mem_ctrls.readPktSize::2                     0                       # Read request sizes (log2)
system.mem_ctrls.readPktSize::3                     0                       # Read request sizes (log2)
system.mem_ctrls.readPktSize::4                     0                       # Read request sizes (log2)
system.mem_ctrls.readPktSize::5                     0                       # Read request sizes (log2)
system.mem_ctrls.readPktSize::6                 45850                       # Read request sizes (log2)
system.mem_ctrls.writePktSize::0                    0                       # Write request sizes (log2)
system.mem_ctrls.writePktSize::1                    0                       # Write request sizes (log2)
system.mem_ctrls.writePktSize::2                    0                       # Write request sizes (log2)
system.mem_ctrls.writePktSize::3                    0                       # Write request sizes (log2)
system.mem_ctrls.writePktSize::4                    0                       # Write request sizes (log2)
system.mem_ctrls.writePktSize::5                    0                       # Write request sizes (log2)
system.mem_ctrls.writePktSize::6                36347                       # Write request sizes (log2)
system.mem_ctrls.rdQLenPdf::0                   43968                       # What read queue length does an incoming req see
system.mem_ctrls.rdQLenPdf::1                    1847                       # What read queue length does an incoming req see
system.mem_ctrls.rdQLenPdf::2                       8                       # What read queue length does an incoming req see
system.mem_ctrls.rdQLenPdf::3                       0                       # What read queue length does an incoming req see
system.mem_ctrls.rdQLenPdf::4                       0                       # What read queue length does an incoming req see
system.mem_ctrls.rdQLenPdf::5                       0                       # What read queue length does an incoming req see
system.mem_ctrls.rdQLenPdf::6                       0                       # What read queue length does an incoming req see
system.mem_ctrls.rdQLenPdf::7                       0                       # What read queue length does an incoming req see
system.mem_ctrls.rdQLenPdf::8                       0                       # What read queue length does an incoming req see
system.mem_ctrls.rdQLenPdf::9                       0                       # What read queue length does an incoming req see
system.mem_ctrls.rdQLenPdf::10                      0                       # What read queue length does an incoming req see
system.mem_ctrls.rdQLenPdf::11                      0                       # What read queue length does an incoming req see
system.mem_ctrls.rdQLenPdf::12                      0                       # What read queue length does an incoming req see
system.mem_ctrls.rdQLenPdf::13                      0                       # What read queue length does an incoming req see
system.mem_ctrls.rdQLenPdf::14                      0                       # What read queue length does an incoming req see
system.mem_ctrls.rdQLenPdf::15                      0                       # What read queue length does an incoming req see
system.mem_ctrls.rdQLenPdf::16                      0                       # What read queue length does an incoming req see
system.mem_ctrls.rdQLenPdf::17                      0                       # What read queue length does an incoming req see
system.mem_ctrls.rdQLenPdf::18                      0                       # What read queue length does an incoming req see
system.mem_ctrls.rdQLenPdf::19                      0                       # What read queue length does an incoming req see
system.mem_ctrls.rdQLenPdf::20                      0                       # What read queue length does an incoming req see
system.mem_ctrls.rdQLenPdf::21                      0                       # What read queue length does an incoming req see
system.mem_ctrls.rdQLenPdf::22                      0                       # What read queue length does an incoming req see
system.mem_ctrls.rdQLenPdf::23                      0                       # What read queue length does an incoming req see
system.mem_ctrls.rdQLenPdf::24                      0                       # What read queue length does an incoming req see
system.mem_ctrls.rdQLenPdf::25                      0                       # What read queue length does an incoming req see
system.mem_ctrls.rdQLenPdf::26                      0                       # What read queue length does an incoming req see
system.mem_ctrls.rdQLenPdf::27                      0                       # What read queue length does an incoming req see
system.mem_ctrls.rdQLenPdf::28                      0                       # What read queue length does an incoming req see
system.mem_ctrls.rdQLenPdf::29                      0                       # What read queue length does an incoming req see
system.mem_ctrls.rdQLenPdf::30                      0                       # What read queue length does an incoming req see
system.mem_ctrls.rdQLenPdf::31                      0                       # What read queue length does an incoming req see
system.mem_ctrls.wrQLenPdf::0                       1                       # What write queue length does an incoming req see
system.mem_ctrls.wrQLenPdf::1                       1                       # What write queue length does an incoming req see
system.mem_ctrls.wrQLenPdf::2                       1                       # What write queue length does an incoming req see
system.mem_ctrls.wrQLenPdf::3                       1                       # What write queue length does an incoming req see
system.mem_ctrls.wrQLenPdf::4                       1                       # What write queue length does an incoming req see
system.mem_ctrls.wrQLenPdf::5                       1                       # What write queue length does an incoming req see
system.mem_ctrls.wrQLenPdf::6                       1                       # What write queue length does an incoming req see
system.mem_ctrls.wrQLenPdf::7                       1                       # What write queue length does an incoming req see
system.mem_ctrls.wrQLenPdf::8                       1                       # What write queue length does an incoming req see
system.mem_ctrls.wrQLenPdf::9                       1                       # What write queue length does an incoming req see
system.mem_ctrls.wrQLenPdf::10                      1                       # What write queue length does an incoming req see
system.mem_ctrls.wrQLenPdf::11                      1                       # What write queue length does an incoming req see
system.mem_ctrls.wrQLenPdf::12                      1                       # What write queue length does an incoming req see
system.mem_ctrls.wrQLenPdf::13                      1                       # What write queue length does an incoming req see
system.mem_ctrls.wrQLenPdf::14                      1                       # What write queue length does an incoming req see
system.mem_ctrls.wrQLenPdf::15                   1844                       # What write queue length does an incoming req see
system.mem_ctrls.wrQLenPdf::16                   1847                       # What write queue length does an incoming req see
system.mem_ctrls.wrQLenPdf::17                   2030                       # What write queue length does an incoming req see
system.mem_ctrls.wrQLenPdf::18                   2037                       # What write queue length does an incoming req see
system.mem_ctrls.wrQLenPdf::19                   2040                       # What write queue length does an incoming req see
system.mem_ctrls.wrQLenPdf::20                   2041                       # What write queue length does an incoming req see
system.mem_ctrls.wrQLenPdf::21                   2042                       # What write queue length does an incoming req see
system.mem_ctrls.wrQLenPdf::22                   2036                       # What write queue length does an incoming req see
system.mem_ctrls.wrQLenPdf::23                   2053                       # What write queue length does an incoming req see
system.mem_ctrls.wrQLenPdf::24                   2048                       # What write queue length does an incoming req see
system.mem_ctrls.wrQLenPdf::25                   2041                       # What write queue length does an incoming req see
system.mem_ctrls.wrQLenPdf::26                   2034                       # What write queue length does an incoming req see
system.mem_ctrls.wrQLenPdf::27                   2043                       # What write queue length does an incoming req see
system.mem_ctrls.wrQLenPdf::28                   2058                       # What write queue length does an incoming req see
system.mem_ctrls.wrQLenPdf::29                   2043                       # What write queue length does an incoming req see
system.mem_ctrls.wrQLenPdf::30                   2033                       # What write queue length does an incoming req see
system.mem_ctrls.wrQLenPdf::31                   2031                       # What write queue length does an incoming req see
system.mem_ctrls.wrQLenPdf::32                   2030                       # What write queue length does an incoming req see
system.mem_ctrls.wrQLenPdf::33                      1                       # What write queue length does an incoming req see
system.mem_ctrls.wrQLenPdf::34                      0                       # What write queue length does an incoming req see
system.mem_ctrls.wrQLenPdf::35                      0                       # What write queue length does an incoming req see
system.mem_ctrls.wrQLenPdf::36                      0                       # What write queue length does an incoming req see
system.mem_ctrls.wrQLenPdf::37                      0                       # What write queue length does an incoming req see
system.mem_ctrls.wrQLenPdf::38                      0                       # What write queue length does an incoming req see
system.mem_ctrls.wrQLenPdf::39                      0                       # What write queue length does an incoming req see
system.mem_ctrls.wrQLenPdf::40                      0                       # What write queue length does an incoming req see
system.mem_ctrls.wrQLenPdf::41                      0                       # What write queue length does an incoming req see
system.mem_ctrls.wrQLenPdf::42                      0                       # What write queue length does an incoming req see
system.mem_ctrls.wrQLenPdf::43                      0                       # What write queue length does an incoming req see
system.mem_ctrls.wrQLenPdf::44                      0                       # What write queue length does an incoming req see
system.mem_ctrls.wrQLenPdf::45                      0                       # What write queue length does an incoming req see
system.mem_ctrls.wrQLenPdf::46                      0                       # What write queue length does an incoming req see
system.mem_ctrls.wrQLenPdf::47                      0                       # What write queue length does an incoming req see
system.mem_ctrls.wrQLenPdf::48                      0                       # What write queue length does an incoming req see
system.mem_ctrls.wrQLenPdf::49                      0                       # What write queue length does an incoming req see
system.mem_ctrls.wrQLenPdf::50                      0                       # What write queue length does an incoming req see
system.mem_ctrls.wrQLenPdf::51                      0                       # What write queue length does an incoming req see
system.mem_ctrls.wrQLenPdf::52                      0                       # What write queue length does an incoming req see
system.mem_ctrls.wrQLenPdf::53                      0                       # What write queue length does an incoming req see
system.mem_ctrls.wrQLenPdf::54                      0                       # What write queue length does an incoming req see
system.mem_ctrls.wrQLenPdf::55                      0                       # What write queue length does an incoming req see
system.mem_ctrls.wrQLenPdf::56                      0                       # What write queue length does an incoming req see
system.mem_ctrls.wrQLenPdf::57                      0                       # What write queue length does an incoming req see
system.mem_ctrls.wrQLenPdf::58                      0                       # What write queue length does an incoming req see
system.mem_ctrls.wrQLenPdf::59                      0                       # What write queue length does an incoming req see
system.mem_ctrls.wrQLenPdf::60                      0                       # What write queue length does an incoming req see
system.mem_ctrls.wrQLenPdf::61                      0                       # What write queue length does an incoming req see
system.mem_ctrls.wrQLenPdf::62                      0                       # What write queue length does an incoming req see
system.mem_ctrls.wrQLenPdf::63                      0                       # What write queue length does an incoming req see
system.mem_ctrls.bytesPerActivate::samples        36440                       # Bytes accessed per row activation
system.mem_ctrls.bytesPerActivate::mean    144.284523                       # Bytes accessed per row activation
system.mem_ctrls.bytesPerActivate::gmean   104.970512                       # Bytes accessed per row activation
system.mem_ctrls.bytesPerActivate::stdev   169.756973                       # Bytes accessed per row activation
system.mem_ctrls.bytesPerActivate::0-127        20226     55.50%     55.50% # Bytes accessed per row activation
system.mem_ctrls.bytesPerActivate::128-255        11568     31.75%     87.25% # Bytes accessed per row activation
system.mem_ctrls.bytesPerActivate::256-383         2205      6.05%     93.30% # Bytes accessed per row activation
system.mem_ctrls.bytesPerActivate::384-511          683      1.87%     95.18% # Bytes accessed per row activation
system.mem_ctrls.bytesPerActivate::512-639          377      1.03%     96.21% # Bytes accessed per row activation
system.mem_ctrls.bytesPerActivate::640-767          293      0.80%     97.01% # Bytes accessed per row activation
system.mem_ctrls.bytesPerActivate::768-895          309      0.85%     97.86% # Bytes accessed per row activation
system.mem_ctrls.bytesPerActivate::896-1023          345      0.95%     98.81% # Bytes accessed per row activation
system.mem_ctrls.bytesPerActivate::1024-1151          434      1.19%    100.00% # Bytes accessed per row activation
system.mem_ctrls.bytesPerActivate::total        36440                       # Bytes accessed per row activation
system.mem_ctrls.rdPerTurnAround::samples         2030                       # Reads before turning the bus around for writes
system.mem_ctrls.rdPerTurnAround::mean      22.571921                       # Reads before turning the bus around for writes
system.mem_ctrls.rdPerTurnAround::gmean     19.308197                       # Reads before turning the bus around for writes
system.mem_ctrls.rdPerTurnAround::stdev     85.935713                       # Reads before turning the bus around for writes
system.mem_ctrls.rdPerTurnAround::0-127          2023     99.66%     99.66% # Reads before turning the bus around for writes
system.mem_ctrls.rdPerTurnAround::128-255            2      0.10%     99.75% # Reads before turning the bus around for writes
[...]
system.cpu.icache.ReadReq_mshr_misses::.cpu.inst          932                       # number of ReadReq MSHR misses
system.cpu.icache.ReadReq_mshr_misses::total          932                       # number of ReadReq MSHR misses
system.cpu.icache.ReadReq_mshr_miss_latency::.cpu.inst     62359000                       # number of ReadReq MSHR miss cycles
system.cpu.icache.ReadReq_mshr_miss_latency::total     62359000                       # number of ReadReq MSHR miss cycles
system.cpu.icache.ReadReq_mshr_miss_rate::.cpu.inst     0.000035                       # mshr miss rate for ReadReq accesses
system.cpu.icache.ReadReq_mshr_miss_rate::total     0.000035                       # mshr miss rate for ReadReq accesses
system.cpu.icache.ReadReq_avg_mshr_miss_latency::.cpu.inst 66908.798283                       # average ReadReq mshr miss latency
system.cpu.icache.ReadReq_avg_mshr_miss_latency::total 66908.798283                       # average ReadReq mshr miss latency
system.cpu.icache.tags.pwrStateResidencyTicks::UNDEFINED 109765290000                       # Cumulative time (in ticks) in various power states
system.cpu.icache.tags.tagsinuse           441.453977                       # Cycle average of tags in use
system.cpu.icache.tags.total_refs            27001355                       # Total number of references to valid blocks.
system.cpu.icache.tags.sampled_refs               932                       # Sample count of references to valid blocks.
system.cpu.icache.tags.avg_refs          28971.410944                       # Average number of references to valid blocks.
system.cpu.icache.tags.warmup_cycle            108000                       # Cycle when the warmup percentage was hit.
system.cpu.icache.tags.occ_blocks::.cpu.inst   441.453977                       # Average occupied blocks per requestor
system.cpu.icache.tags.occ_percent::.cpu.inst     0.431107                       # Average percentage of cache occupancy
system.cpu.icache.tags.occ_percent::total     0.431107                       # Average percentage of cache occupancy
system.cpu.icache.tags.occ_task_id_blocks::1024          442                       # Occupied blocks per task id
system.cpu.icache.tags.age_task_id_blocks_1024::1            3                       # Occupied blocks per task id
system.cpu.icache.tags.age_task_id_blocks_1024::4          439                       # Occupied blocks per task id
system.cpu.icache.tags.occ_task_id_percent::1024     0.431641                       # Percentage of cache occupancy per task id
system.cpu.icache.tags.tag_accesses          27002287                       # Number of tag accesses
system.cpu.icache.tags.data_accesses         27002287                       # Number of data accesses
system.cpu.dtb.walker.pwrStateResidencyTicks::UNDEFINED 109765290000                       # Cumulative time (in ticks) in various power states
system.cpu.dtb.stage2_mmu.stage2_tlb.walker.pwrStateResidencyTicks::UNDEFINED 109765290000                       # Cumulative time (in ticks) in various power states
system.cpu.dcache.pwrStateResidencyTicks::UNDEFINED 109765290000                       # Cumulative time (in ticks) in various power states
system.cpu.dcache.demand_hits::.cpu.data     35092612                       # number of demand (read+write) hits
system.cpu.dcache.demand_hits::total         35092612                       # number of demand (read+write) hits
system.cpu.dcache.overall_hits::.cpu.data     35095698                       # number of overall hits
system.cpu.dcache.overall_hits::total        35095698                       # number of overall hits
system.cpu.dcache.demand_misses::.cpu.data        78027                       # number of demand (read+write) misses
system.cpu.dcache.demand_misses::total          78027                       # number of demand (read+write) misses
system.cpu.dcache.overall_misses::.cpu.data        78070                       # number of overall misses
system.cpu.dcache.overall_misses::total         78070                       # number of overall misses
system.cpu.dcache.demand_miss_latency::.cpu.data   6870244000                       # number of demand (read+write) miss cycles
system.cpu.dcache.demand_miss_latency::total   6870244000                       # number of demand (read+write) miss cycles
system.cpu.dcache.overall_miss_latency::.cpu.data   6870244000                       # number of overall miss cycles
system.cpu.dcache.overall_miss_latency::total   6870244000                       # number of overall miss cycles
system.cpu.dcache.demand_accesses::.cpu.data     35170639                       # number of demand (read+write) accesses
system.cpu.dcache.demand_accesses::total     35170639                       # number of demand (read+write) accesses
system.cpu.dcache.overall_accesses::.cpu.data     35173768                       # number of overall (read+write) accesses
system.cpu.dcache.overall_accesses::total     35173768                       # number of overall (read+write) accesses
system.cpu.dcache.demand_miss_rate::.cpu.data     0.002219                       # miss rate for demand accesses
system.cpu.dcache.demand_miss_rate::total     0.002219                       # miss rate for demand accesses
system.cpu.dcache.overall_miss_rate::.cpu.data     0.002220                       # miss rate for overall accesses
system.cpu.dcache.overall_miss_rate::total     0.002220                       # miss rate for overall accesses
system.cpu.dcache.demand_avg_miss_latency::.cpu.data 88049.572584                       # average overall miss latency
system.cpu.dcache.demand_avg_miss_latency::total 88049.572584                       # average overall miss latency
system.cpu.dcache.overall_avg_miss_latency::.cpu.data 88001.075957                       # average overall miss latency
system.cpu.dcache.overall_avg_miss_latency::total 88001.075957                       # average overall miss latency
system.cpu.dcache.blocked_cycles::no_mshrs            0                       # number of cycles access was blocked
system.cpu.dcache.blocked_cycles::no_targets            0                       # number of cycles access was blocked
system.cpu.dcache.blocked::no_mshrs                 0                       # number of cycles access was blocked
system.cpu.dcache.blocked::no_targets               0                       # number of cycles access was blocked
system.cpu.dcache.avg_blocked_cycles::no_mshrs          nan                       # average number of cycles each access was blocked
system.cpu.dcache.avg_blocked_cycles::no_targets          nan                       # average number of cycles each access was blocked
system.cpu.dcache.writebacks::.writebacks        51198                       # number of writebacks
system.cpu.dcache.writebacks::total             51198                       # number of writebacks
system.cpu.dcache.demand_mshr_hits::.cpu.data        20954                       # number of demand (read+write) MSHR hits
system.cpu.dcache.demand_mshr_hits::total        20954                       # number of demand (read+write) MSHR hits
system.cpu.dcache.overall_mshr_hits::.cpu.data        20954                       # number of overall MSHR hits
system.cpu.dcache.overall_mshr_hits::total        20954                       # number of overall MSHR hits
system.cpu.dcache.demand_mshr_misses::.cpu.data        57073                       # number of demand (read+write) MSHR misses
system.cpu.dcache.demand_mshr_misses::total        57073                       # number of demand (read+write) MSHR misses
system.cpu.dcache.overall_mshr_misses::.cpu.data        57112                       # number of overall MSHR misses
system.cpu.dcache.overall_mshr_misses::total        57112                       # number of overall MSHR misses
system.cpu.dcache.demand_mshr_miss_latency::.cpu.data   5329264000                       # number of demand (read+write) MSHR miss cycles
system.cpu.dcache.demand_mshr_miss_latency::total   5329264000                       # number of demand (read+write) MSHR miss cycles
system.cpu.dcache.overall_mshr_miss_latency::.cpu.data   5332066000                       # number of overall MSHR miss cycles
system.cpu.dcache.overall_mshr_miss_latency::total   5332066000                       # number of overall MSHR miss cycles
system.cpu.dcache.demand_mshr_miss_rate::.cpu.data     0.001623                       # mshr miss rate for demand accesses
system.cpu.dcache.demand_mshr_miss_rate::total     0.001623                       # mshr miss rate for demand accesses
system.cpu.dcache.overall_mshr_miss_rate::.cpu.data     0.001624                       # mshr miss rate for overall accesses
system.cpu.dcache.overall_mshr_miss_rate::total     0.001624                       # mshr miss rate for overall accesses
system.cpu.dcache.demand_avg_mshr_miss_latency::.cpu.data 93376.272493                       # average overall mshr miss latency
system.cpu.dcache.demand_avg_mshr_miss_latency::total 93376.272493                       # average overall mshr miss latency
system.cpu.dcache.overall_avg_mshr_miss_latency::.cpu.data 93361.570248                       # average overall mshr miss latency
system.cpu.dcache.overall_avg_mshr_miss_latency::total 93361.570248                       # average overall mshr miss latency
system.cpu.dcache.replacements                  55064                       # number of replacements
system.cpu.dcache.ReadReq_hits::.cpu.data     20883617                       # number of ReadReq hits
system.cpu.dcache.ReadReq_hits::total        20883617                       # number of ReadReq hits
system.cpu.dcache.ReadReq_misses::.cpu.data        20036                       # number of ReadReq misses
system.cpu.dcache.ReadReq_misses::total         20036                       # number of ReadReq misses
system.cpu.dcache.ReadReq_miss_latency::.cpu.data   1280821000                       # number of ReadReq miss cycles
system.cpu.dcache.ReadReq_miss_latency::total   1280821000                       # number of ReadReq miss cycles
system.cpu.dcache.ReadReq_accesses::.cpu.data     20903653                       # number of ReadReq accesses(hits+misses)
system.cpu.dcache.ReadReq_accesses::total     20903653                       # number of ReadReq accesses(hits+misses)
system.cpu.dcache.ReadReq_miss_rate::.cpu.data     0.000958                       # miss rate for ReadReq accesses
system.cpu.dcache.ReadReq_miss_rate::total     0.000958                       # miss rate for ReadReq accesses
system.cpu.dcache.ReadReq_avg_miss_latency::.cpu.data 63925.983230                       # average ReadReq miss latency
system.cpu.dcache.ReadReq_avg_miss_latency::total 63925.983230                       # average ReadReq miss latency
system.cpu.dcache.ReadReq_mshr_hits::.cpu.data         2918                       # number of ReadReq MSHR hits
system.cpu.dcache.ReadReq_mshr_hits::total         2918                       # number of ReadReq MSHR hits
system.cpu.dcache.ReadReq_mshr_misses::.cpu.data        17118                       # number of ReadReq MSHR misses
system.cpu.dcache.ReadReq_mshr_misses::total        17118                       # number of ReadReq MSHR misses
system.cpu.dcache.ReadReq_mshr_miss_latency::.cpu.data   1095140000                       # number of ReadReq MSHR miss cycles
system.cpu.dcache.ReadReq_mshr_miss_latency::total   1095140000                       # number of ReadReq MSHR miss cycles
system.cpu.dcache.ReadReq_mshr_miss_rate::.cpu.data     0.000819                       # mshr miss rate for ReadReq accesses
system.cpu.dcache.ReadReq_mshr_miss_rate::total     0.000819                       # mshr miss rate for ReadReq accesses
system.cpu.dcache.ReadReq_avg_mshr_miss_latency::.cpu.data 63975.931768                       # average ReadReq mshr miss latency
system.cpu.dcache.ReadReq_avg_mshr_miss_latency::total 63975.931768                       # average ReadReq mshr miss latency
system.cpu.dcache.WriteReq_hits::.cpu.data     14208995                       # number of WriteReq hits
system.cpu.dcache.WriteReq_hits::total       14208995                       # number of WriteReq hits
system.cpu.dcache.WriteReq_misses::.cpu.data        57991                       # number of WriteReq misses
system.cpu.dcache.WriteReq_misses::total        57991                       # number of WriteReq misses
system.cpu.dcache.WriteReq_miss_latency::.cpu.data   5589423000                       # number of WriteReq miss cycles
system.cpu.dcache.WriteReq_miss_latency::total   5589423000                       # number of WriteReq miss cycles
system.cpu.dcache.WriteReq_accesses::.cpu.data     14266986                       # number of WriteReq accesses(hits+misses)
system.cpu.dcache.WriteReq_accesses::total     14266986                       # number of WriteReq accesses(hits+misses)
system.cpu.dcache.WriteReq_miss_rate::.cpu.data     0.004065                       # miss rate for WriteReq accesses
system.cpu.dcache.WriteReq_miss_rate::total     0.004065                       # miss rate for WriteReq accesses
system.cpu.dcache.WriteReq_avg_miss_latency::.cpu.data 96384.318256                       # average WriteReq miss latency
system.cpu.dcache.WriteReq_avg_miss_latency::total 96384.318256                       # average WriteReq miss latency
system.cpu.dcache.WriteReq_mshr_hits::.cpu.data        18036                       # number of WriteReq MSHR hits
system.cpu.dcache.WriteReq_mshr_hits::total        18036                       # number of WriteReq MSHR hits
system.cpu.dcache.WriteReq_mshr_misses::.cpu.data        39955                       # number of WriteReq MSHR misses
system.cpu.dcache.WriteReq_mshr_misses::total        39955                       # number of WriteReq MSHR misses
system.cpu.dcache.WriteReq_mshr_miss_latency::.cpu.data   4234124000                       # number of WriteReq MSHR miss cycles
system.cpu.dcache.WriteReq_mshr_miss_latency::total   4234124000                       # number of WriteReq MSHR miss cycles
system.cpu.dcache.WriteReq_mshr_miss_rate::.cpu.data     0.002801                       # mshr miss rate for WriteReq accesses
system.cpu.dcache.WriteReq_mshr_miss_rate::total     0.002801                       # mshr miss rate for WriteReq accesses
system.cpu.dcache.WriteReq_avg_mshr_miss_latency::.cpu.data 105972.318859                       # average WriteReq mshr miss latency
system.cpu.dcache.WriteReq_avg_mshr_miss_latency::total 105972.318859                       # average WriteReq mshr miss latency
system.cpu.dcache.SoftPFReq_hits::.cpu.data         3086                       # number of SoftPFReq hits
system.cpu.dcache.SoftPFReq_hits::total          3086                       # number of SoftPFReq hits
system.cpu.dcache.SoftPFReq_misses::.cpu.data           43                       # number of SoftPFReq misses
system.cpu.dcache.SoftPFReq_misses::total           43                       # number of SoftPFReq misses
system.cpu.dcache.SoftPFReq_accesses::.cpu.data         3129                       # number of SoftPFReq accesses(hits+misses)
system.cpu.dcache.SoftPFReq_accesses::total         3129                       # number of SoftPFReq accesses(hits+misses)
system.cpu.dcache.SoftPFReq_miss_rate::.cpu.data     0.013742                       # miss rate for SoftPFReq accesses
system.cpu.dcache.SoftPFReq_miss_rate::total     0.013742                       # miss rate for SoftPFReq accesses
system.cpu.dcache.SoftPFReq_mshr_misses::.cpu.data           39                       # number of SoftPFReq MSHR misses
system.cpu.dcache.SoftPFReq_mshr_misses::total           39                       # number of SoftPFReq MSHR misses
system.cpu.dcache.SoftPFReq_mshr_miss_latency::.cpu.data      2802000                       # number of SoftPFReq MSHR miss cycles
system.cpu.dcache.SoftPFReq_mshr_miss_latency::total      2802000                       # number of SoftPFReq MSHR miss cycles
system.cpu.dcache.SoftPFReq_mshr_miss_rate::.cpu.data     0.012464                       # mshr miss rate for SoftPFReq accesses
system.cpu.dcache.SoftPFReq_mshr_miss_rate::total     0.012464                       # mshr miss rate for SoftPFReq accesses
system.cpu.dcache.SoftPFReq_avg_mshr_miss_latency::.cpu.data 71846.153846                       # average SoftPFReq mshr miss latency
system.cpu.dcache.SoftPFReq_avg_mshr_miss_latency::total 71846.153846                       # average SoftPFReq mshr miss latency
system.cpu.dcache.LoadLockedReq_hits::.cpu.data        85610                       # number of LoadLockedReq hits
system.cpu.dcache.LoadLockedReq_hits::total        85610                       # number of LoadLockedReq hits
system.cpu.dcache.LoadLockedReq_accesses::.cpu.data        85610                       # number of LoadLockedReq accesses(hits+misses)
system.cpu.dcache.LoadLockedReq_accesses::total        85610                       # number of LoadLockedReq accesses(hits+misses)
system.cpu.dcache.StoreCondReq_hits::.cpu.data        85610                       # number of StoreCondReq hits
system.cpu.dcache.StoreCondReq_hits::total        85610                       # number of StoreCondReq hits
system.cpu.dcache.StoreCondReq_accesses::.cpu.data        85610                       # number of StoreCondReq accesses(hits+misses)
system.cpu.dcache.StoreCondReq_accesses::total        85610                       # number of StoreCondReq accesses(hits+misses)
system.cpu.dcache.tags.pwrStateResidencyTicks::UNDEFINED 109765290000                       # Cumulative time (in ticks) in various power states
system.cpu.dcache.tags.tagsinuse          2031.037468                       # Cycle average of tags in use
system.cpu.dcache.tags.total_refs            35324030                       # Total number of references to valid blocks.
system.cpu.dcache.tags.sampled_refs             57112                       # Sample count of references to valid blocks.
system.cpu.dcache.tags.avg_refs            618.504517                       # Average number of references to valid blocks.
system.cpu.dcache.tags.warmup_cycle            223000                       # Cycle when the warmup percentage was hit.
system.cpu.dcache.tags.occ_blocks::.cpu.data  2031.037468                       # Average occupied blocks per requestor
system.cpu.dcache.tags.occ_percent::.cpu.data     0.991718                       # Average percentage of cache occupancy
system.cpu.dcache.tags.occ_percent::total     0.991718                       # Average percentage of cache occupancy
system.cpu.dcache.tags.occ_task_id_blocks::1024         2048                       # Occupied blocks per task id
system.cpu.dcache.tags.age_task_id_blocks_1024::0            3                       # Occupied blocks per task id
system.cpu.dcache.tags.age_task_id_blocks_1024::1           22                       # Occupied blocks per task id
system.cpu.dcache.tags.age_task_id_blocks_1024::2          235                       # Occupied blocks per task id
system.cpu.dcache.tags.age_task_id_blocks_1024::3         1706                       # Occupied blocks per task id
system.cpu.dcache.tags.age_task_id_blocks_1024::4           82                       # Occupied blocks per task id
system.cpu.dcache.tags.occ_task_id_percent::1024            1                       # Percentage of cache occupancy per task id
system.cpu.dcache.tags.tag_accesses          35402100                       # Number of tag accesses
system.cpu.dcache.tags.data_accesses         35402100                       # Number of data accesses
system.cpu.itb.walker.pwrStateResidencyTicks::UNDEFINED 109765290000                       # Cumulative time (in ticks) in various power states
system.cpu.itb.stage2_mmu.stage2_tlb.walker.pwrStateResidencyTicks::UNDEFINED 109765290000                       # Cumulative time (in ticks) in various power states

---------- End Simulation Statistics   ----------
