
---------- Begin Simulation Statistics ----------
final_tick                               123333583000                       # Number of ticks from beginning of simulation (restored from checkpoints and never reset)
host_inst_rate                                 373607                       # Simulator instruction rate (inst/s)
host_mem_usage                                 712092                       # Number of bytes of host memory used
host_op_rate                                   377800                       # Simulator op (including micro ops) rate (op/s)
host_seconds                                   267.66                       # Real time elapsed on the host
host_tick_rate                              460782363                       # Simulator tick rate (ticks/s)
sim_freq                                 1000000000000                       # Frequency of simulated ticks
sim_insts                                   100000000                       # Number of instructions simulated
sim_ops                                     101122354                       # Number of ops (including micro ops) simulated
sim_seconds                                  0.123334                       # Number of seconds simulated
sim_ticks                                123333583000                       # Number of ticks simulated
system.cpu.branchPred.BTBCorrect                    0                       # Number of correct BTB predictions (this stat may not work properly.
system.cpu.branchPred.BTBHitPct             84.824623                       # BTB Hit Percentage
system.cpu.branchPred.BTBHits                 4086556                       # Number of BTB hits
system.cpu.branchPred.BTBLookups              4817653                       # Number of BTB lookups
system.cpu.branchPred.RASInCorrect                 20                       # Number of incorrect RAS predictions.
system.cpu.branchPred.condIncorrect            345777                       # Number of conditional branches incorrect
system.cpu.branchPred.condPredicted           5102498                       # Number of conditional branches predicted
system.cpu.branchPred.indirectHits             102839                       # Number of indirect target hits.
system.cpu.branchPred.indirectLookups          675261                       # Number of indirect predictor lookups.
system.cpu.branchPred.indirectMisses           572422                       # Number of indirect misses.
system.cpu.branchPred.lookups                 6510577                       # Number of BP lookups
system.cpu.branchPred.usedRAS                  312628                       # Number of times the RAS was used to get a target.
system.cpu.branchPredindirectMispredicted        35007                       # Number of mispredicted indirect branches.
system.cpu.committedInsts                   100000000                       # Number of instructions committed
system.cpu.committedOps                     101122354                       # Number of ops (including micro ops) committed
system.cpu.cpi                               1.233336                       # CPI: cycles per instruction
system.cpu.discardedOps                        960467                       # Number of ops (including micro ops) which were discarded before commit
system.cpu.dtb.accesses                             0                       # DTB accesses
system.cpu.dtb.align_faults                         0                       # Number of TLB faults due to alignment restrictions
system.cpu.dtb.domain_faults                        0                       # Number of TLB faults due to domain restrictions
system.cpu.dtb.flush_entries                        0                       # Number of entries that have been flushed from TLB
system.cpu.dtb.flush_tlb                            0                       # Number of times complete TLB was flushed
system.cpu.dtb.flush_tlb_asid                       0                       # Number of times TLB was flushed by ASID
system.cpu.dtb.flush_tlb_mva                        0                       # Number of times TLB was flushed by MVA
system.cpu.dtb.flush_tlb_mva_asid                   0                       # Number of times TLB was flushed by MVA & ASID
system.cpu.dtb.hits                                 0                       # DTB hits
system.cpu.dtb.inst_accesses                        0                       # ITB inst accesses
system.cpu.dtb.inst_hits                            0                       # ITB inst hits
system.cpu.dtb.inst_misses                          0                       # ITB inst misses
system.cpu.dtb.misses                               0                       # DTB misses
system.cpu.dtb.perms_faults                         0                       # Number of TLB faults due to permissions restrictions
system.cpu.dtb.prefetch_faults                      0                       # Number of TLB faults due to prefetch
system.cpu.dtb.read_accesses                        0                       # DTB read accesses
system.cpu.dtb.read_hits                            0                       # DTB read hits
system.cpu.dtb.read_misses                          0                       # DTB read misses
system.cpu.dtb.stage2_mmu.stage2_tlb.accesses            0                       # DTB accesses
system.cpu.dtb.stage2_mmu.stage2_tlb.align_faults            0                       # Number of TLB faults due to alignment restrictions
system.cpu.dtb.stage2_mmu.stage2_tlb.domain_faults            0                       # Number of TLB faults due to domain restrictions
system.cpu.dtb.stage2_mmu.stage2_tlb.flush_entries            0                       # Number of entries that have been flushed from TLB
system.cpu.dtb.stage2_mmu.stage2_tlb.flush_tlb            0                       # Number of times complete TLB was flushed
system.cpu.dtb.stage2_mmu.stage2_tlb.flush_tlb_asid            0                       # Number of times TLB was flushed by ASID
system.cpu.dtb.stage2_mmu.stage2_tlb.flush_tlb_mva            0                       # Number of times TLB was flushed by MVA
system.cpu.dtb.stage2_mmu.stage2_tlb.flush_tlb_mva_asid            0                       # Number of times TLB was flushed by MVA & ASID
system.cpu.dtb.stage2_mmu.stage2_tlb.hits            0                       # DTB hits
system.cpu.dtb.stage2_mmu.stage2_tlb.inst_accesses            0                       # ITB inst accesses
system.cpu.dtb.stage2_mmu.stage2_tlb.inst_hits            0                       # ITB inst hits
system.cpu.dtb.stage2_mmu.stage2_tlb.inst_misses            0                       # ITB inst misses
system.cpu.dtb.stage2_mmu.stage2_tlb.misses            0                       # DTB misses
system.cpu.dtb.stage2_mmu.stage2_tlb.perms_faults            0                       # Number of TLB faults due to permissions restrictions
system.cpu.dtb.stage2_mmu.stage2_tlb.prefetch_faults            0                       # Number of TLB faults due to prefetch
system.cpu.dtb.stage2_mmu.stage2_tlb.read_accesses            0                       # DTB read accesses
system.cpu.dtb.stage2_mmu.stage2_tlb.read_hits            0                       # DTB read hits
system.cpu.dtb.stage2_mmu.stage2_tlb.read_misses            0                       # DTB read misses
system.cpu.dtb.stage2_mmu.stage2_tlb.walker.walkRequestOrigin_Requested::Data            0                       # Table walker requests started/completed, data/inst
system.cpu.dtb.stage2_mmu.stage2_tlb.walker.walkRequestOrigin_Requested::Inst            0                       # Table walker requests started/completed, data/inst
system.cpu.dtb.stage2_mmu.stage2_tlb.walker.walkRequestOrigin_Requested::total            0                       # Table walker requests started/completed, data/inst
system.cpu.dtb.stage2_mmu.stage2_tlb.walker.walkRequestOrigin_Completed::Data            0                       # Table walker requests started/completed, data/inst
system.cpu.dtb.stage2_mmu.stage2_tlb.walker.walkRequestOrigin_Completed::Inst            0                       # Table walker requests started/completed, data/inst
system.cpu.dtb.stage2_mmu.stage2_tlb.walker.walkRequestOrigin_Completed::total            0                       # Table walker requests started/completed, data/inst
system.cpu.dtb.stage2_mmu.stage2_tlb.walker.walkRequestOrigin::total            0                       # Table walker requests started/completed, data/inst
system.cpu.dtb.stage2_mmu.stage2_tlb.walker.walks            0                       # Table walker walks requested
system.cpu.dtb.stage2_mmu.stage2_tlb.write_accesses            0                       # DTB write accesses
system.cpu.dtb.stage2_mmu.stage2_tlb.write_hits            0                       # DTB write hits
system.cpu.dtb.stage2_mmu.stage2_tlb.write_misses            0                       # DTB write misses
system.cpu.dtb.walker.walkRequestOrigin_Requested::Data            0                       # Table walker requests started/completed, data/inst
system.cpu.dtb.walker.walkRequestOrigin_Requested::Inst            0                       # Table walker requests started/completed, data/inst
system.cpu.dtb.walker.walkRequestOrigin_Requested::total            0                       # Table walker requests started/completed, data/inst
system.cpu.dtb.walker.walkRequestOrigin_Completed::Data            0                       # Table walker requests started/completed, data/inst
system.cpu.dtb.walker.walkRequestOrigin_Completed::Inst            0                       # Table walker requests started/completed, data/inst
system.cpu.dtb.walker.walkRequestOrigin_Completed::total            0                       # Table walker requests started/completed, data/inst
system.cpu.dtb.walker.walkRequestOrigin::total            0                       # Table walker requests started/completed, data/inst
system.cpu.dtb.walker.walks                         0                       # Table walker walks requested
system.cpu.dtb.write_accesses                       0                       # DTB write accesses
system.cpu.dtb.write_hits                           0                       # DTB write hits
system.cpu.dtb.write_misses                         0                       # DTB write misses
system.cpu.fetch2.amo_instructions                  0                       # Number of memory atomic instructions successfully decoded
system.cpu.fetch2.fp_instructions                   0                       # Number of floating point instructions successfully decoded
system.cpu.fetch2.int_instructions           48893866                       # Number of integer instructions successfully decoded
system.cpu.fetch2.load_instructions          40553986                       # Number of memory load instructions successfully decoded
system.cpu.fetch2.store_instructions          6262926                       # Number of memory store instructions successfully decoded
system.cpu.fetch2.vec_instructions                  0                       # Number of SIMD instructions successfully decoded
system.cpu.idleCycles                         7117630                       # Total number of cycles that the object has spent stopped
system.cpu.ipc                               0.810809                       # IPC: instructions per cycle
system.cpu.itb.accesses                             0                       # DTB accesses
system.cpu.itb.align_faults                         0                       # Number of TLB faults due to alignment restrictions
system.cpu.itb.domain_faults                        0                       # Number of TLB faults due to domain restrictions
system.cpu.itb.flush_entries                        0                       # Number of entries that have been flushed from TLB
system.cpu.itb.flush_tlb                            0                       # Number of times complete TLB was flushed
system.cpu.itb.flush_tlb_asid                       0                       # Number of times TLB was flushed by ASID
system.cpu.itb.flush_tlb_mva                        0                       # Number of times TLB was flushed by MVA
system.cpu.itb.flush_tlb_mva_asid                   0                       # Number of times TLB was flushed by MVA & ASID
system.cpu.itb.hits                                 0                       # DTB hits
system.cpu.itb.inst_accesses                        0                       # ITB inst accesses
system.cpu.itb.inst_hits                            0                       # ITB inst hits
system.cpu.itb.inst_misses                          0                       # ITB inst misses
system.cpu.itb.misses                               0                       # DTB misses
system.cpu.itb.perms_faults                         0                       # Number of TLB faults due to permissions restrictions
system.cpu.itb.prefetch_faults                      0                       # Number of TLB faults due to prefetch
system.cpu.itb.read_accesses                        0                       # DTB read accesses
system.cpu.itb.read_hits                            0                       # DTB read hits
system.cpu.itb.read_misses                          0                       # DTB read misses
system.cpu.itb.stage2_mmu.stage2_tlb.accesses            0                       # DTB accesses
system.cpu.itb.stage2_mmu.stage2_tlb.align_faults            0                       # Number of TLB faults due to alignment restrictions
system.cpu.itb.stage2_mmu.stage2_tlb.domain_faults            0                       # Number of TLB faults due to domain restrictions
system.cpu.itb.stage2_mmu.stage2_tlb.flush_entries            0                       # Number of entries that have been flushed from TLB
system.cpu.itb.stage2_mmu.stage2_tlb.flush_tlb            0                       # Number of times complete TLB was flushed
system.cpu.itb.stage2_mmu.stage2_tlb.flush_tlb_asid            0                       # Number of times TLB was flushed by ASID
system.cpu.itb.stage2_mmu.stage2_tlb.flush_tlb_mva            0                       # Number of times TLB was flushed by MVA
system.cpu.itb.stage2_mmu.stage2_tlb.flush_tlb_mva_asid            0                       # Number of times TLB was flushed by MVA & ASID
system.cpu.itb.stage2_mmu.stage2_tlb.hits            0                       # DTB hits
system.cpu.itb.stage2_mmu.stage2_tlb.inst_accesses            0                       # ITB inst accesses
system.cpu.itb.stage2_mmu.stage2_tlb.inst_hits            0                       # ITB inst hits
system.cpu.itb.stage2_mmu.stage2_tlb.inst_misses            0                       # ITB inst misses
system.cpu.itb.stage2_mmu.stage2_tlb.misses            0                       # DTB misses
system.cpu.itb.stage2_mmu.stage2_tlb.perms_faults            0                       # Number of TLB faults due to permissions restrictions
system.cpu.itb.stage2_mmu.stage2_tlb.prefetch_faults            0                       # Number of TLB faults due to prefetch
system.cpu.itb.stage2_mmu.stage2_tlb.read_accesses            0                       # DTB read accesses
system.cpu.itb.stage2_mmu.stage2_tlb.read_hits            0                       # DTB read hits
system.cpu.itb.stage2_mmu.stage2_tlb.read_misses            0                       # DTB read misses
system.cpu.itb.stage2_mmu.stage2_tlb.walker.walkRequestOrigin_Requested::Data            0                       # Table walker requests started/completed, data/inst
system.cpu.itb.stage2_mmu.stage2_tlb.walker.walkRequestOrigin_Requested::Inst            0                       # Table walker requests started/completed, data/inst
system.cpu.itb.stage2_mmu.stage2_tlb.walker.walkRequestOrigin_Requested::total            0                       # Table walker requests started/completed, data/inst
system.cpu.itb.stage2_mmu.stage2_tlb.walker.walkRequestOrigin_Completed::Data            0                       # Table walker requests started/completed, data/inst
system.cpu.itb.stage2_mmu.stage2_tlb.walker.walkRequestOrigin_Completed::Inst            0                       # Table walker requests started/completed, data/inst
system.cpu.itb.stage2_mmu.stage2_tlb.walker.walkRequestOrigin_Completed::total            0                       # Table walker requests started/completed, data/inst
system.cpu.itb.stage2_mmu.stage2_tlb.walker.walkRequestOrigin::total            0                       # Table walker requests started/completed, data/inst
system.cpu.itb.stage2_mmu.stage2_tlb.walker.walks            0                       # Table walker walks requested
system.cpu.itb.stage2_mmu.stage2_tlb.write_accesses            0                       # DTB write accesses
system.cpu.itb.stage2_mmu.stage2_tlb.write_hits            0                       # DTB write hits
system.cpu.itb.stage2_mmu.stage2_tlb.write_misses            0                       # DTB write misses
system.cpu.itb.walker.walkRequestOrigin_Requested::Data            0                       # Table walker requests started/completed, data/inst
system.cpu.itb.walker.walkRequestOrigin_Requested::Inst            0                       # Table walker requests started/completed, data/inst
system.cpu.itb.walker.walkRequestOrigin_Requested::total            0                       # Table walker requests started/completed, data/inst
system.cpu.itb.walker.walkRequestOrigin_Completed::Data            0                       # Table walker requests started/completed, data/inst
system.cpu.itb.walker.walkRequestOrigin_Completed::Inst            0                       # Table walker requests started/completed, data/inst
system.cpu.itb.walker.walkRequestOrigin_Completed::total            0                       # Table walker requests started/completed, data/inst
system.cpu.itb.walker.walkRequestOrigin::total            0                       # Table walker requests started/completed, data/inst
system.cpu.itb.walker.walks                         0                       # Table walker walks requested
system.cpu.itb.write_accesses                       0                       # DTB write accesses
system.cpu.itb.write_hits                           0                       # DTB write hits
system.cpu.itb.write_misses                         0                       # DTB write misses
system.cpu.numCycles                        123333583                       # number of cpu cycles simulated
system.cpu.numFetchSuspends                         0                       # Number of times Execute suspended instruction fetching
system.cpu.numWorkItemsCompleted                    0                       # number of work items this cpu completed
system.cpu.numWorkItemsStarted                      0                       # number of work items this cpu started
system.cpu.op_class_0::No_OpClass                   0      0.00%      0.00% # Class of committed instruction
system.cpu.op_class_0::IntAlu                55111288     54.50%     54.50% # Class of committed instruction
system.cpu.op_class_0::IntMult                 167845      0.17%     54.67% # Class of committed instruction
system.cpu.op_class_0::IntDiv                       0      0.00%     54.67% # Class of committed instruction
system.cpu.op_class_0::FloatAdd                     0      0.00%     54.67% # Class of committed instruction
system.cpu.op_class_0::FloatCmp                     0      0.00%     54.67% # Class of committed instruction
system.cpu.op_class_0::FloatCvt                     0      0.00%     54.67% # Class of committed instruction
system.cpu.op_class_0::FloatMult                    0      0.00%     54.67% # Class of committed instruction
system.cpu.op_class_0::FloatMultAcc                 0      0.00%     54.67% # Class of committed instruction
system.cpu.op_class_0::FloatDiv                     0      0.00%     54.67% # Class of committed instruction
system.cpu.op_class_0::FloatMisc                    0      0.00%     54.67% # Class of committed instruction
system.cpu.op_class_0::FloatSqrt                    0      0.00%     54.67% # Class of committed instruction
system.cpu.op_class_0::SimdAdd                    380      0.00%     54.67% # Class of committed instruction
system.cpu.op_class_0::SimdAddAcc                   0      0.00%     54.67% # Class of committed instruction
system.cpu.op_class_0::SimdAlu                    470      0.00%     54.67% # Class of committed instruction
system.cpu.op_class_0::SimdCmp                    382      0.00%     54.67% # Class of committed instruction
system.cpu.op_class_0::SimdCvt                      0      0.00%     54.67% # Class of committed instruction
system.cpu.op_class_0::SimdMisc                    53      0.00%     54.67% # Class of committed instruction
system.cpu.op_class_0::SimdMult                     0      0.00%     54.67% # Class of committed instruction
system.cpu.op_class_0::SimdMultAcc                  0      0.00%     54.67% # Class of committed instruction
system.cpu.op_class_0::SimdShift                    0      0.00%     54.67% # Class of committed instruction
system.cpu.op_class_0::SimdShiftAcc                 0      0.00%     54.67% # Class of committed instruction
system.cpu.op_class_0::SimdDiv                      0      0.00%     54.67% # Class of committed instruction
system.cpu.op_class_0::SimdSqrt                     0      0.00%     54.67% # Class of committed instruction
system.cpu.op_class_0::SimdFloatAdd            282752      0.28%     54.95% # Class of committed instruction
system.cpu.op_class_0::SimdFloatAlu                 0      0.00%     54.95% # Class of committed instruction
system.cpu.op_class_0::SimdFloatCmp            266991      0.26%     55.21% # Class of committed instruction
system.cpu.op_class_0::SimdFloatCvt            163440      0.16%     55.37% # Class of committed instruction
system.cpu.op_class_0::SimdFloatDiv             54308      0.05%     55.43% # Class of committed instruction
system.cpu.op_class_0::SimdFloatMisc           505318      0.50%     55.93% # Class of committed instruction
system.cpu.op_class_0::SimdFloatMult            36718      0.04%     55.96% # Class of committed instruction
system.cpu.op_class_0::SimdFloatMultAcc         10949      0.01%     55.97% # Class of committed instruction
system.cpu.op_class_0::SimdFloatSqrt                0      0.00%     55.97% # Class of committed instruction
system.cpu.op_class_0::SimdReduceAdd                0      0.00%     55.97% # Class of committed instruction
system.cpu.op_class_0::SimdReduceAlu                0      0.00%     55.97% # Class of committed instruction
system.cpu.op_class_0::SimdReduceCmp                0      0.00%     55.97% # Class of committed instruction
system.cpu.op_class_0::SimdFloatReduceAdd            0      0.00%     55.97% # Class of committed instruction
system.cpu.op_class_0::SimdFloatReduceCmp            0      0.00%     55.97% # Class of committed instruction
system.cpu.op_class_0::SimdAes                      0      0.00%     55.97% # Class of committed instruction
system.cpu.op_class_0::SimdAesMix                   0      0.00%     55.97% # Class of committed instruction
system.cpu.op_class_0::SimdSha1Hash                 0      0.00%     55.97% # Class of committed instruction
system.cpu.op_class_0::SimdSha1Hash2                0      0.00%     55.97% # Class of committed instruction
system.cpu.op_class_0::SimdSha256Hash               0      0.00%     55.97% # Class of committed instruction
system.cpu.op_class_0::SimdSha256Hash2              0      0.00%     55.97% # Class of committed instruction
system.cpu.op_class_0::SimdShaSigma2                0      0.00%     55.97% # Class of committed instruction
system.cpu.op_class_0::SimdShaSigma3                0      0.00%     55.97% # Class of committed instruction
system.cpu.op_class_0::SimdPredAlu                  0      0.00%     55.97% # Class of committed instruction
system.cpu.op_class_0::MemRead               38138372     37.72%     93.69% # Class of committed instruction
system.cpu.op_class_0::MemWrite               6383088      6.31%    100.00% # Class of committed instruction
system.cpu.op_class_0::FloatMemRead                 0      0.00%    100.00% # Class of committed instruction
system.cpu.op_class_0::FloatMemWrite                0      0.00%    100.00% # Class of committed instruction
system.cpu.op_class_0::IprAccess                    0      0.00%    100.00% # Class of committed instruction
system.cpu.op_class_0::InstPrefetch                 0      0.00%    100.00% # Class of committed instruction
system.cpu.op_class_0::total                101122354                       # Class of committed instruction
system.cpu.tickCycles                       116215953                       # Number of cycles that the object actually ticked
system.cpu.workload.numSyscalls                    33                       # Number of system calls
system.membus.snoop_filter.hit_multi_requests            0                       # Number of requests hitting in the snoop filter with multiple (>1) holders of the requested data.
system.membus.snoop_filter.hit_multi_snoops            0                       # Number of snoops hitting in the snoop filter with multiple (>1) holders of the requested data.
system.membus.snoop_filter.hit_single_requests         2524                       # Number of requests hitting in the snoop filter with a single holder of the requested data.
system.membus.snoop_filter.hit_single_snoops            0                       # Number of snoops hitting in the snoop filter with a single holder of the requested data.
system.membus.snoop_filter.tot_requests          9537                       # Total number of requests made to the snoop filter.
system.membus.snoop_filter.tot_snoops               0                       # Total number of snoops made to the snoop filter.
system.tol2bus.snoop_filter.hit_multi_requests         1730                       # Number of requests hitting in the snoop filter with multiple (>1) holders of the requested data.
system.tol2bus.snoop_filter.hit_multi_snoops          116                       # Number of snoops hitting in the snoop filter with multiple (>1) holders of the requested data.
system.tol2bus.snoop_filter.hit_single_requests       239160                       # Number of requests hitting in the snoop filter with a single holder of the requested data.
system.tol2bus.snoop_filter.hit_single_snoops         1519                       # Number of snoops hitting in the snoop filter with a single holder of the requested data.
system.tol2bus.snoop_filter.tot_requests       479653                       # Total number of requests made to the snoop filter.
system.tol2bus.snoop_filter.tot_snoops           1635                       # Total number of snoops made to the snoop filter.
system.membus.pwrStateResidencyTicks::UNDEFINED 123333583000                       # Cumulative time (in ticks) in various power states
system.membus.trans_dist::ReadResp               3390                       # Transaction distribution
system.membus.trans_dist::WritebackDirty          541                       # Transaction distribution
system.membus.trans_dist::CleanEvict             1683                       # Transaction distribution
system.membus.trans_dist::ReadExReq              3923                       # Transaction distribution
system.membus.trans_dist::ReadExResp             3923                       # Transaction distribution
system.membus.trans_dist::ReadSharedReq          3390                       # Transaction distribution
system.membus.pkt_count_system.l2.mem_side::system.mem_ctrls.port        16850                       # Packet count per connected master and slave (bytes)
system.membus.pkt_count::total                  16850                       # Packet count per connected master and slave (bytes)
system.membus.pkt_size_system.l2.mem_side::system.mem_ctrls.port       502656                       # Cumulative packet size per connected master and slave (bytes)
system.membus.pkt_size::total                  502656                       # Cumulative packet size per connected master and slave (bytes)
system.membus.snoops                                0                       # Total snoops (count)
system.membus.snoopTraffic                          0                       # Total snoop traffic (bytes)
system.membus.snoop_fanout::samples              7313                       # Request fanout histogram
system.membus.snoop_fanout::mean                    0                       # Request fanout histogram
system.membus.snoop_fanout::stdev                   0                       # Request fanout histogram
system.membus.snoop_fanout::underflows              0      0.00%      0.00% # Request fanout histogram
system.membus.snoop_fanout::0                    7313    100.00%    100.00% # Request fanout histogram
system.membus.snoop_fanout::1                       0      0.00%    100.00% # Request fanout histogram
system.membus.snoop_fanout::overflows               0      0.00%    100.00% # Request fanout histogram
system.membus.snoop_fanout::min_value               0                       # Request fanout histogram
system.membus.snoop_fanout::max_value               0                       # Request fanout histogram
system.membus.snoop_fanout::total                7313                       # Request fanout histogram
system.membus.respLayer1.occupancy           39093250                       # Layer occupancy (ticks)
system.membus.respLayer1.utilization              0.0                       # Layer utilization (%)
system.membus.reqLayer0.occupancy            11701000                       # Layer occupancy (ticks)
system.membus.reqLayer0.utilization               0.0                       # Layer utilization (%)
system.tol2bus.pwrStateResidencyTicks::UNDEFINED 123333583000                       # Cumulative time (in ticks) in various power states
system.tol2bus.trans_dist::ReadResp            152520                       # Transaction distribution
system.tol2bus.trans_dist::WritebackDirty       227610                       # Transaction distribution
system.tol2bus.trans_dist::WritebackClean         1498                       # Transaction distribution
system.tol2bus.trans_dist::CleanEvict           13636                       # Transaction distribution
system.tol2bus.trans_dist::ReadExReq            87977                       # Transaction distribution
system.tol2bus.trans_dist::ReadExResp           87977                       # Transaction distribution
system.tol2bus.trans_dist::ReadCleanReq          2327                       # Transaction distribution
system.tol2bus.trans_dist::ReadSharedReq       150193                       # Transaction distribution
system.tol2bus.pkt_count_system.cpu.icache.mem_side::system.l2.cpu_side         6152                       # Packet count per connected master and slave (bytes)
system.tol2bus.pkt_count_system.cpu.dcache.mem_side::system.l2.cpu_side       713998                       # Packet count per connected master and slave (bytes)
system.tol2bus.pkt_count::total                720150                       # Packet count per connected master and slave (bytes)
system.tol2bus.pkt_size_system.cpu.icache.mem_side::system.l2.cpu_side       244800                       # Cumulative packet size per connected master and slave (bytes)
system.tol2bus.pkt_size_system.cpu.dcache.mem_side::system.l2.cpu_side     29775296                       # Cumulative packet size per connected master and slave (bytes)
system.tol2bus.pkt_size::total               30020096                       # Cumulative packet size per connected master and slave (bytes)
system.tol2bus.snoops                            3588                       # Total snoops (count)
system.tol2bus.snoopTraffic                     34624                       # Total snoop traffic (bytes)
system.tol2bus.snoop_fanout::samples           244085                       # Request fanout histogram
system.tol2bus.snoop_fanout::mean            0.014278                       # Request fanout histogram
system.tol2bus.snoop_fanout::stdev           0.122574                       # Request fanout histogram
system.tol2bus.snoop_fanout::underflows             0      0.00%      0.00% # Request fanout histogram
system.tol2bus.snoop_fanout::0                 240716     98.62%     98.62% # Request fanout histogram
system.tol2bus.snoop_fanout::1                   3253      1.33%     99.95% # Request fanout histogram
system.tol2bus.snoop_fanout::2                    116      0.05%    100.00% # Request fanout histogram
system.tol2bus.snoop_fanout::overflows              0      0.00%    100.00% # Request fanout histogram
system.tol2bus.snoop_fanout::min_value              0                       # Request fanout histogram
system.tol2bus.snoop_fanout::max_value              2                       # Request fanout histogram
system.tol2bus.snoop_fanout::total             244085                       # Request fanout histogram
system.tol2bus.reqLayer0.occupancy          936787000                       # Layer occupancy (ticks)
system.tol2bus.reqLayer0.utilization              0.8                       # Layer utilization (%)
system.tol2bus.respLayer1.occupancy         714517992                       # Layer occupancy (ticks)
system.tol2bus.respLayer1.utilization             0.6                       # Layer utilization (%)
system.tol2bus.respLayer0.occupancy           6982998                       # Layer occupancy (ticks)
system.tol2bus.respLayer0.utilization             0.0                       # Layer utilization (%)
system.voltage_domain.voltage                       1                       # Voltage in Volts
system.clk_domain.clock                          1000                       # Clock period in ticks
system.l2.pwrStateResidencyTicks::UNDEFINED 123333583000                       # Cumulative time (in ticks) in various power states
system.l2.demand_hits::.cpu.inst                  924                       # number of demand (read+write) hits
system.l2.demand_hits::.cpu.data               232250                       # number of demand (read+write) hits
system.l2.demand_hits::total                   233174                       # number of demand (read+write) hits
system.l2.overall_hits::.cpu.inst                 924                       # number of overall hits
system.l2.overall_hits::.cpu.data              232250                       # number of overall hits
system.l2.overall_hits::total                  233174                       # number of overall hits
system.l2.demand_misses::.cpu.inst               1403                       # number of demand (read+write) misses
system.l2.demand_misses::.cpu.data               5920                       # number of demand (read+write) misses
system.l2.demand_misses::total                   7323                       # number of demand (read+write) misses
system.l2.overall_misses::.cpu.inst              1403                       # number of overall misses
system.l2.overall_misses::.cpu.data              5920                       # number of overall misses
system.l2.overall_misses::total                  7323                       # number of overall misses
system.l2.demand_miss_latency::.cpu.inst    138223000                       # number of demand (read+write) miss cycles
system.l2.demand_miss_latency::.cpu.data    589951000                       # number of demand (read+write) miss cycles
system.l2.demand_miss_latency::total        728174000                       # number of demand (read+write) miss cycles
system.l2.overall_miss_latency::.cpu.inst    138223000                       # number of overall miss cycles
system.l2.overall_miss_latency::.cpu.data    589951000                       # number of overall miss cycles
system.l2.overall_miss_latency::total       728174000                       # number of overall miss cycles
system.l2.demand_accesses::.cpu.inst             2327                       # number of demand (read+write) accesses
system.l2.demand_accesses::.cpu.data           238170                       # number of demand (read+write) accesses
system.l2.demand_accesses::total               240497                       # number of demand (read+write) accesses
system.l2.overall_accesses::.cpu.inst            2327                       # number of overall (read+write) accesses
system.l2.overall_accesses::.cpu.data          238170                       # number of overall (read+write) accesses
system.l2.overall_accesses::total              240497                       # number of overall (read+write) accesses
system.l2.demand_miss_rate::.cpu.inst        0.602922                       # miss rate for demand accesses
system.l2.demand_miss_rate::.cpu.data        0.024856                       # miss rate for demand accesses
system.l2.demand_miss_rate::total            0.030449                       # miss rate for demand accesses
system.l2.overall_miss_rate::.cpu.inst       0.602922                       # miss rate for overall accesses
system.l2.overall_miss_rate::.cpu.data       0.024856                       # miss rate for overall accesses
system.l2.overall_miss_rate::total           0.030449                       # miss rate for overall accesses
system.l2.demand_avg_miss_latency::.cpu.inst 98519.600855                       # average overall miss latency
system.l2.demand_avg_miss_latency::.cpu.data 99653.885135                       # average overall miss latency
system.l2.demand_avg_miss_latency::total 99436.569712                       # average overall miss latency
system.l2.overall_avg_miss_latency::.cpu.inst 98519.600855                       # average overall miss latency
system.l2.overall_avg_miss_latency::.cpu.data 99653.885135                       # average overall miss latency
system.l2.overall_avg_miss_latency::total 99436.569712                       # average overall miss latency
system.l2.blocked_cycles::no_mshrs                  0                       # number of cycles access was blocked
system.l2.blocked_cycles::no_targets                0                       # number of cycles access was blocked
system.l2.blocked::no_mshrs                         0                       # number of cycles access was blocked
system.l2.blocked::no_targets                       0                       # number of cycles access was blocked
system.l2.avg_blocked_cycles::no_mshrs            nan                       # average number of cycles each access was blocked
system.l2.avg_blocked_cycles::no_targets          nan                       # average number of cycles each access was blocked
system.l2.writebacks::.writebacks                 541                       # number of writebacks
system.l2.writebacks::total                       541                       # number of writebacks
system.l2.demand_mshr_hits::.cpu.inst               2                       # number of demand (read+write) MSHR hits
system.l2.demand_mshr_hits::.cpu.data               8                       # number of demand (read+write) MSHR hits
system.l2.demand_mshr_hits::total                  10                       # number of demand (read+write) MSHR hits
system.l2.overall_mshr_hits::.cpu.inst              2                       # number of overall MSHR hits
system.l2.overall_mshr_hits::.cpu.data              8                       # number of overall MSHR hits
system.l2.overall_mshr_hits::total                 10                       # number of overall MSHR hits
system.l2.demand_mshr_misses::.cpu.inst          1401                       # number of demand (read+write) MSHR misses
system.l2.demand_mshr_misses::.cpu.data          5912                       # number of demand (read+write) MSHR misses
system.l2.demand_mshr_misses::total              7313                       # number of demand (read+write) MSHR misses
system.l2.overall_mshr_misses::.cpu.inst         1401                       # number of overall MSHR misses
system.l2.overall_mshr_misses::.cpu.data         5912                       # number of overall MSHR misses
system.l2.overall_mshr_misses::total             7313                       # number of overall MSHR misses
system.l2.demand_mshr_miss_latency::.cpu.inst    110040000                       # number of demand (read+write) MSHR miss cycles
system.l2.demand_mshr_miss_latency::.cpu.data    471099000                       # number of demand (read+write) MSHR miss cycles
system.l2.demand_mshr_miss_latency::total    581139000                       # number of demand (read+write) MSHR miss cycles
system.l2.overall_mshr_miss_latency::.cpu.inst    110040000                       # number of overall MSHR miss cycles
system.l2.overall_mshr_miss_latency::.cpu.data    471099000                       # number of overall MSHR miss cycles
system.l2.overall_mshr_miss_latency::total    581139000                       # number of overall MSHR miss cycles
system.l2.demand_mshr_miss_rate::.cpu.inst     0.602063                       # mshr miss rate for demand accesses
system.l2.demand_mshr_miss_rate::.cpu.data     0.024823                       # mshr miss rate for demand accesses
system.l2.demand_mshr_miss_rate::total       0.030408                       # mshr miss rate for demand accesses
system.l2.overall_mshr_miss_rate::.cpu.inst     0.602063                       # mshr miss rate for overall accesses
system.l2.overall_mshr_miss_rate::.cpu.data     0.024823                       # mshr miss rate for overall accesses
system.l2.overall_mshr_miss_rate::total      0.030408                       # mshr miss rate for overall accesses
system.l2.demand_avg_mshr_miss_latency::.cpu.inst 78543.897216                       # average overall mshr miss latency
system.l2.demand_avg_mshr_miss_latency::.cpu.data 79685.216509                       # average overall mshr miss latency
system.l2.demand_avg_mshr_miss_latency::total 79466.566389                       # average overall mshr miss latency
system.l2.overall_avg_mshr_miss_latency::.cpu.inst 78543.897216                       # average overall mshr miss latency
system.l2.overall_avg_mshr_miss_latency::.cpu.data 79685.216509                       # average overall mshr miss latency
system.l2.overall_avg_mshr_miss_latency::total 79466.566389                       # average overall mshr miss latency
system.l2.replacements                           3588                       # number of replacements
system.l2.WritebackDirty_hits::.writebacks       227069                       # number of WritebackDirty hits
system.l2.WritebackDirty_hits::total           227069                       # number of WritebackDirty hits
system.l2.WritebackDirty_accesses::.writebacks       227069                       # number of WritebackDirty accesses(hits+misses)
system.l2.WritebackDirty_accesses::total       227069                       # number of WritebackDirty accesses(hits+misses)
system.l2.WritebackClean_hits::.writebacks         1452                       # number of WritebackClean hits
system.l2.WritebackClean_hits::total             1452                       # number of WritebackClean hits
system.l2.WritebackClean_accesses::.writebacks         1452                       # number of WritebackClean accesses(hits+misses)
system.l2.WritebackClean_accesses::total         1452                       # number of WritebackClean accesses(hits+misses)
system.l2.CleanEvict_mshr_misses::.writebacks          271                       # number of CleanEvict MSHR misses
system.l2.CleanEvict_mshr_misses::total           271                       # number of CleanEvict MSHR misses
system.l2.CleanEvict_mshr_miss_rate::.writebacks          inf                       # mshr miss rate for CleanEvict accesses
system.l2.CleanEvict_mshr_miss_rate::total          inf                       # mshr miss rate for CleanEvict accesses
system.l2.ReadExReq_hits::.cpu.data             84054                       # number of ReadExReq hits
system.l2.ReadExReq_hits::total                 84054                       # number of ReadExReq hits
system.l2.ReadExReq_misses::.cpu.data            3923                       # number of ReadExReq misses
system.l2.ReadExReq_misses::total                3923                       # number of ReadExReq misses
system.l2.ReadExReq_miss_latency::.cpu.data    387033000                       # number of ReadExReq miss cycles
system.l2.ReadExReq_miss_latency::total     387033000                       # number of ReadExReq miss cycles
system.l2.ReadExReq_accesses::.cpu.data         87977                       # number of ReadExReq accesses(hits+misses)
system.l2.ReadExReq_accesses::total             87977                       # number of ReadExReq accesses(hits+misses)
system.l2.ReadExReq_miss_rate::.cpu.data     0.044591                       # miss rate for ReadExReq accesses
system.l2.ReadExReq_miss_rate::total         0.044591                       # miss rate for ReadExReq accesses
system.l2.ReadExReq_avg_miss_latency::.cpu.data 98657.405047                       # average ReadExReq miss latency
system.l2.ReadExReq_avg_miss_latency::total 98657.405047                       # average ReadExReq miss latency
system.l2.ReadExReq_mshr_misses::.cpu.data         3923                       # number of ReadExReq MSHR misses
system.l2.ReadExReq_mshr_misses::total           3923                       # number of ReadExReq MSHR misses
system.l2.ReadExReq_mshr_miss_latency::.cpu.data    308573000                       # number of ReadExReq MSHR miss cycles
system.l2.ReadExReq_mshr_miss_latency::total    308573000                       # number of ReadExReq MSHR miss cycles
system.l2.ReadExReq_mshr_miss_rate::.cpu.data     0.044591                       # mshr miss rate for ReadExReq accesses
system.l2.ReadExReq_mshr_miss_rate::total     0.044591                       # mshr miss rate for ReadExReq accesses
system.l2.ReadExReq_avg_mshr_miss_latency::.cpu.data 78657.405047                       # average ReadExReq mshr miss latency
system.l2.ReadExReq_avg_mshr_miss_latency::total 78657.405047                       # average ReadExReq mshr miss latency
system.l2.ReadCleanReq_hits::.cpu.inst            924                       # number of ReadCleanReq hits
system.l2.ReadCleanReq_hits::total                924                       # number of ReadCleanReq hits
system.l2.ReadCleanReq_misses::.cpu.inst         1403                       # number of ReadCleanReq misses
system.l2.ReadCleanReq_misses::total             1403                       # number of ReadCleanReq misses
system.l2.ReadCleanReq_miss_latency::.cpu.inst    138223000                       # number of ReadCleanReq miss cycles
system.l2.ReadCleanReq_miss_latency::total    138223000                       # number of ReadCleanReq miss cycles
system.l2.ReadCleanReq_accesses::.cpu.inst         2327                       # number of ReadCleanReq accesses(hits+misses)
system.l2.ReadCleanReq_accesses::total           2327                       # number of ReadCleanReq accesses(hits+misses)
system.l2.ReadCleanReq_miss_rate::.cpu.inst     0.602922                       # miss rate for ReadCleanReq accesses
system.l2.ReadCleanReq_miss_rate::total      0.602922                       # miss rate for ReadCleanReq accesses
system.l2.ReadCleanReq_avg_miss_latency::.cpu.inst 98519.600855                       # average ReadCleanReq miss latency
system.l2.ReadCleanReq_avg_miss_latency::total 98519.600855                       # average ReadCleanReq miss latency
system.l2.ReadCleanReq_mshr_hits::.cpu.inst            2                       # number of ReadCleanReq MSHR hits
system.l2.ReadCleanReq_mshr_hits::total             2                       # number of ReadCleanReq MSHR hits
system.l2.ReadCleanReq_mshr_misses::.cpu.inst         1401                       # number of ReadCleanReq MSHR misses
system.l2.ReadCleanReq_mshr_misses::total         1401                       # number of ReadCleanReq MSHR misses
system.l2.ReadCleanReq_mshr_miss_latency::.cpu.inst    110040000                       # number of ReadCleanReq MSHR miss cycles
system.l2.ReadCleanReq_mshr_miss_latency::total    110040000                       # number of ReadCleanReq MSHR miss cycles
system.l2.ReadCleanReq_mshr_miss_rate::.cpu.inst     0.602063                       # mshr miss rate for ReadCleanReq accesses
system.l2.ReadCleanReq_mshr_miss_rate::total     0.602063                       # mshr miss rate for ReadCleanReq accesses
system.l2.ReadCleanReq_avg_mshr_miss_latency::.cpu.inst 78543.897216                       # average ReadCleanReq mshr miss latency
system.l2.ReadCleanReq_avg_mshr_miss_latency::total 78543.897216                       # average ReadCleanReq mshr miss latency
system.l2.ReadSharedReq_hits::.cpu.data        148196                       # number of ReadSharedReq hits
system.l2.ReadSharedReq_hits::total            148196                       # number of ReadSharedReq hits
system.l2.ReadSharedReq_misses::.cpu.data         1997                       # number of ReadSharedReq misses
system.l2.ReadSharedReq_misses::total            1997                       # number of ReadSharedReq misses
system.l2.ReadSharedReq_miss_latency::.cpu.data    202918000                       # number of ReadSharedReq miss cycles
system.l2.ReadSharedReq_miss_latency::total    202918000                       # number of ReadSharedReq miss cycles
system.l2.ReadSharedReq_accesses::.cpu.data       150193                       # number of ReadSharedReq accesses(hits+misses)
system.l2.ReadSharedReq_accesses::total        150193                       # number of ReadSharedReq accesses(hits+misses)
system.l2.ReadSharedReq_miss_rate::.cpu.data     0.013296                       # miss rate for ReadSharedReq accesses
system.l2.ReadSharedReq_miss_rate::total     0.013296                       # miss rate for ReadSharedReq accesses
system.l2.ReadSharedReq_avg_miss_latency::.cpu.data 101611.417126                       # average ReadSharedReq miss latency
system.l2.ReadSharedReq_avg_miss_latency::total 101611.417126                       # average ReadSharedReq miss latency
system.l2.ReadSharedReq_mshr_hits::.cpu.data            8                       # number of ReadSharedReq MSHR hits
system.l2.ReadSharedReq_mshr_hits::total            8                       # number of ReadSharedReq MSHR hits
system.l2.ReadSharedReq_mshr_misses::.cpu.data         1989                       # number of ReadSharedReq MSHR misses
system.l2.ReadSharedReq_mshr_misses::total         1989                       # number of ReadSharedReq MSHR misses
system.l2.ReadSharedReq_mshr_miss_latency::.cpu.data    162526000                       # number of ReadSharedReq MSHR miss cycles
system.l2.ReadSharedReq_mshr_miss_latency::total    162526000                       # number of ReadSharedReq MSHR miss cycles
system.l2.ReadSharedReq_mshr_miss_rate::.cpu.data     0.013243                       # mshr miss rate for ReadSharedReq accesses
system.l2.ReadSharedReq_mshr_miss_rate::total     0.013243                       # mshr miss rate for ReadSharedReq accesses
system.l2.ReadSharedReq_avg_mshr_miss_latency::.cpu.data 81712.418301                       # average ReadSharedReq mshr miss latency
system.l2.ReadSharedReq_avg_mshr_miss_latency::total 81712.418301                       # average ReadSharedReq mshr miss latency
system.l2.tags.pwrStateResidencyTicks::UNDEFINED 123333583000                       # Cumulative time (in ticks) in various power states
system.l2.tags.tagsinuse                  3959.944972                       # Cycle average of tags in use
system.l2.tags.total_refs                      477642                       # Total number of references to valid blocks.
system.l2.tags.sampled_refs                      7653                       # Sample count of references to valid blocks.
system.l2.tags.avg_refs                     62.412387                       # Average number of references to valid blocks.
system.l2.tags.warmup_cycle                     87000                       # Cycle when the warmup percentage was hit.
system.l2.tags.occ_blocks::.writebacks      49.075924                       # Average occupied blocks per requestor
system.l2.tags.occ_blocks::.cpu.inst       181.445104                       # Average occupied blocks per requestor
system.l2.tags.occ_blocks::.cpu.data      3729.423944                       # Average occupied blocks per requestor
system.l2.tags.occ_percent::.writebacks      0.011981                       # Average percentage of cache occupancy
system.l2.tags.occ_percent::.cpu.inst        0.044298                       # Average percentage of cache occupancy
system.l2.tags.occ_percent::.cpu.data        0.910504                       # Average percentage of cache occupancy
system.l2.tags.occ_percent::total            0.966783                       # Average percentage of cache occupancy
system.l2.tags.occ_task_id_blocks::1024          4065                       # Occupied blocks per task id
system.l2.tags.age_task_id_blocks_1024::1            1                       # Occupied blocks per task id
system.l2.tags.age_task_id_blocks_1024::2           11                       # Occupied blocks per task id
system.l2.tags.age_task_id_blocks_1024::3           39                       # Occupied blocks per task id
system.l2.tags.age_task_id_blocks_1024::4         4014                       # Occupied blocks per task id
system.l2.tags.occ_task_id_percent::1024     0.992432                       # Percentage of cache occupancy per task id
system.l2.tags.tag_accesses                    963499                       # Number of tag accesses
system.l2.tags.data_accesses                   963499                       # Number of data accesses
system.cpu_voltage_domain.voltage                   1                       # Voltage in Volts
system.mem_ctrls.pwrStateResidencyTicks::UNDEFINED 123333583000                       # Cumulative time (in ticks) in various power states
system.mem_ctrls.bytes_read::.cpu.inst          89664                       # Number of bytes read from this memory
system.mem_ctrls.bytes_read::.cpu.data         378368                       # Number of bytes read from this memory
system.mem_ctrls.bytes_read::total             468032                       # Number of bytes read from this memory
system.mem_ctrls.bytes_inst_read::.cpu.inst        89664                       # Number of instructions bytes read from this memory
system.mem_ctrls.bytes_inst_read::total         89664                       # Number of instructions bytes read from this memory
system.mem_ctrls.bytes_written::.writebacks        34624                       # Number of bytes written to this memory
system.mem_ctrls.bytes_written::total           34624                       # Number of bytes written to this memory
system.mem_ctrls.num_reads::.cpu.inst            1401                       # Number of read requests responded to by this memory
system.mem_ctrls.num_reads::.cpu.data            5912                       # Number of read requests responded to by this memory
system.mem_ctrls.num_reads::total                7313                       # Number of read requests responded to by this memory
system.mem_ctrls.num_writes::.writebacks          541                       # Number of write requests responded to by this memory
system.mem_ctrls.num_writes::total                541                       # Number of write requests responded to by this memory
system.mem_ctrls.bw_read::.cpu.inst            727004                       # Total read bandwidth from this memory (bytes/s)
system.mem_ctrls.bw_read::.cpu.data           3067842                       # Total read bandwidth from this memory (bytes/s)
system.mem_ctrls.bw_read::total               3794846                       # Total read bandwidth from this memory (bytes/s)
system.mem_ctrls.bw_inst_read::.cpu.inst       727004                       # Instruction read bandwidth from this memory (bytes/s)
system.mem_ctrls.bw_inst_read::total           727004                       # Instruction read bandwidth from this memory (bytes/s)
system.mem_ctrls.bw_write::.writebacks         280735                       # Write bandwidth from this memory (bytes/s)
system.mem_ctrls.bw_write::total               280735                       # Write bandwidth from this memory (bytes/s)
system.mem_ctrls.bw_total::.writebacks         280735                       # Total bandwidth to/from this memory (bytes/s)
system.mem_ctrls.bw_total::.cpu.inst           727004                       # Total bandwidth to/from this memory (bytes/s)
system.mem_ctrls.bw_total::.cpu.data          3067842                       # Total bandwidth to/from this memory (bytes/s)
system.mem_ctrls.bw_total::total              4075581                       # Total bandwidth to/from this memory (bytes/s)
system.mem_ctrls.avgPriority_.writebacks::samples       415.00                       # Average QoS priority value for accepted requests
system.mem_ctrls.avgPriority_.cpu.inst::samples      1401.00                       # Average QoS priority value for accepted requests
system.mem_ctrls.avgPriority_.cpu.data::samples      5591.00                       # Average QoS priority value for accepted requests
system.mem_ctrls.priorityMinLatency      0.000000018750                       # per QoS priority minimum request to response latency (s)
system.mem_ctrls.priorityMaxLatency      0.115748436250                       # per QoS priority maximum request to response latency (s)
system.mem_ctrls.numReadWriteTurnArounds           22                       # Number of turnarounds from READ to WRITE
system.mem_ctrls.numWriteReadTurnArounds           22                       # Number of turnarounds from WRITE to READ
system.mem_ctrls.numStayReadState               46174                       # Number of times bus staying in READ state
system.mem_ctrls.numStayWriteState                364                       # Number of times bus staying in WRITE state
system.mem_ctrls.readReqs                        7313                       # Number of read requests accepted
system.mem_ctrls.writeReqs                        541                       # Number of write requests accepted
system.mem_ctrls.readBursts                      7313                       # Number of DRAM read bursts, including those serviced by the write queue
system.mem_ctrls.writeBursts                      541                       # Number of DRAM write bursts, including those merged in the write queue
system.mem_ctrls.servicedByWrQ                    321                       # Number of DRAM read bursts serviced by the write queue
system.mem_ctrls.mergedWrBursts                   126                       # Number of DRAM write bursts merged with an existing one
system.mem_ctrls.neitherReadNorWriteReqs            0                       # Number of requests that are neither read nor write
system.mem_ctrls.perBankRdBursts::0               409                       # Per bank write bursts
system.mem_ctrls.perBankRdBursts::1               321                       # Per bank write bursts
system.mem_ctrls.perBankRdBursts::2               341                       # Per bank write bursts
system.mem_ctrls.perBankRdBursts::3               326                       # Per bank write bursts
system.mem_ctrls.perBankRdBursts::4               331                       # Per bank write bursts
system.mem_ctrls.perBankRdBursts::5               553                       # Per bank write bursts
system.mem_ctrls.perBankRdBursts::6               363                       # Per bank write bursts
system.mem_ctrls.perBankRdBursts::7               453                       # Per bank write bursts
system.mem_ctrls.perBankRdBursts::8               278                       # Per bank write bursts
system.mem_ctrls.perBankRdBursts::9               354                       # Per bank write bursts
system.mem_ctrls.perBankRdBursts::10             1225                       # Per bank write bursts
system.mem_ctrls.perBankRdBursts::11              581                       # Per bank write bursts
system.mem_ctrls.perBankRdBursts::12              462                       # Per bank write bursts
system.mem_ctrls.perBankRdBursts::13              386                       # Per bank write bursts
system.mem_ctrls.perBankRdBursts::14              308                       # Per bank write bursts
system.mem_ctrls.perBankRdBursts::15              301                       # Per bank write bursts
system.mem_ctrls.perBankWrBursts::0                25                       # Per bank write bursts
system.mem_ctrls.perBankWrBursts::1                 0                       # Per bank write bursts
system.mem_ctrls.perBankWrBursts::2                 1                       # Per bank write bursts
system.mem_ctrls.perBankWrBursts::3                 3                       # Per bank write bursts
system.mem_ctrls.perBankWrBursts::4                23                       # Per bank write bursts
system.mem_ctrls.perBankWrBursts::5                86                       # Per bank write bursts
system.mem_ctrls.perBankWrBursts::6                 9                       # Per bank write bursts
system.mem_ctrls.perBankWrBursts::7                15                       # Per bank write bursts
system.mem_ctrls.perBankWrBursts::8                 2                       # Per bank write bursts
system.mem_ctrls.perBankWrBursts::9                 9                       # Per bank write bursts
system.mem_ctrls.perBankWrBursts::10               99                       # Per bank write bursts
system.mem_ctrls.perBankWrBursts::11               44                       # Per bank write bursts
system.mem_ctrls.perBankWrBursts::12               15                       # Per bank write bursts
system.mem_ctrls.perBankWrBursts::13               54                       # Per bank write bursts
system.mem_ctrls.perBankWrBursts::14                0                       # Per bank write bursts
system.mem_ctrls.perBankWrBursts::15                1                       # Per bank write bursts
system.mem_ctrls.avgRdQLen                       1.01                       # Average read queue length when enqueuing
system.mem_ctrls.avgWrQLen                      25.81                       # Average write queue length when enqueuing
system.mem_ctrls.totQLat                     77112500                       # Total ticks spent queuing
system.mem_ctrls.totBusLat                   34960000                       # Total ticks spent in databus transfers
system.mem_ctrls.totMemAccLat               208212500                       # Total ticks spent from burst creation until serviced by the DRAM
system.mem_ctrls.avgQLat                     11028.68                       # Average queueing delay per DRAM burst
system.mem_ctrls.avgBusLat                    5000.00                       # Average bus latency per DRAM burst
system.mem_ctrls.avgMemAccLat                29778.68                       # Average memory access latency per DRAM burst
system.mem_ctrls.numRdRetry                         0                       # Number of times read queue was full causing retry
system.mem_ctrls.numWrRetry                         0                       # Number of times write queue was full causing retry
system.mem_ctrls.readRowHits                     4044                       # Number of row buffer hits during reads
system.mem_ctrls.writeRowHits                     299                       # Number of row buffer hits during writes
system.mem_ctrls.readRowHitRate                 57.84                       # Row buffer hit rate for reads
system.mem_ctrls.writeRowHitRate                72.05                       # Row buffer hit rate for writes
system.mem_ctrls.readPktSize::0                     0                       # Read request sizes (log2)
system.mem_ctrls.readPktSize::1                     0                       # Read request sizes (log2)
system.mem_ctrls.readPktSize::2                     0                       # Read request sizes (log2)
system.mem_ctrls.readPktSize::3                     0                       # Read request sizes (log2)
system.mem_ctrls.readPktSize::4                     0                       # Read request sizes (log2)
system.mem_ctrls.readPktSize::5                     0                       # Read request sizes (log2)
system.mem_ctrls.readPktSize::6                  7313                       # Read request sizes (log2)
system.mem_ctrls.writePktSize::0                    0                       # Write request sizes (log2)
system.mem_ctrls.writePktSize::1                    0                       # Write request sizes (log2)
system.mem_ctrls.writePktSize::2                    0                       # Write request sizes (log2)
system.mem_ctrls.writePktSize::3                    0                       # Write request sizes (log2)
system.mem_ctrls.writePktSize::4                    0                       # Write request sizes (log2)
system.mem_ctrls.writePktSize::5                    0                       # Write request sizes (log2)
system.mem_ctrls.writePktSize::6                  541                       # Write request sizes (log2)
system.mem_ctrls.rdQLenPdf::0                    6561                       # What read queue length does an incoming req see
system.mem_ctrls.rdQLenPdf::1                     415                       # What read queue length does an incoming req see
system.mem_ctrls.rdQLenPdf::2                      16                       # What read queue length does an incoming req see
system.mem_ctrls.rdQLenPdf::3                       0                       # What read queue length does an incoming req see
system.mem_ctrls.rdQLenPdf::4                       0                       # What read queue length does an incoming req see
system.mem_ctrls.rdQLenPdf::5                       0                       # What read queue length does an incoming req see
system.mem_ctrls.rdQLenPdf::6                       0                       # What read queue length does an incoming req see
system.mem_ctrls.rdQLenPdf::7                       0                       # What read queue length does an incoming req see
system.mem_ctrls.rdQLenPdf::8                       0                       # What read queue length does an incoming req see
system.mem_ctrls.rdQLenPdf::9                       0                       # What read queue length does an incoming req see
system.mem_ctrls.rdQLenPdf::10                      0                       # What read queue length does an incoming req see
system.mem_ctrls.rdQLenPdf::11                      0                       # What read queue length does an incoming req see
system.mem_ctrls.rdQLenPdf::12                      0                       # What read queue length does an incoming req see
system.mem_ctrls.rdQLenPdf::13                      0                       # What read queue length does an incoming req see
system.mem_ctrls.rdQLenPdf::14                      0                       # What read queue length does an incoming req see
system.mem_ctrls.rdQLenPdf::15                      0                       # What read queue length does an incoming req see
system.mem_ctrls.rdQLenPdf::16                      0                       # What read queue length does an incoming req see
system.mem_ctrls.rdQLenPdf::17                      0                       # What read queue length does an incoming req see
system.mem_ctrls.rdQLenPdf::18                      0                       # What read queue length does an incoming req see
system.mem_ctrls.rdQLenPdf::19                      0                       # What read queue length does an incoming req see
system.mem_ctrls.rdQLenPdf::20                      0                       # What read queue length does an incoming req see
system.mem_ctrls.rdQLenPdf::21                      0                       # What read queue length does an incoming req see
system.mem_ctrls.rdQLenPdf::22                      0                       # What read queue length does an incoming req see
system.mem_ctrls.rdQLenPdf::23                      0                       # What read queue length does an incoming req see
system.mem_ctrls.rdQLenPdf::24                      0                       # What read queue length does an incoming req see
system.mem_ctrls.rdQLenPdf::25                      0                       # What read queue length does an incoming req see
system.mem_ctrls.rdQLenPdf::26                      0                       # What read queue length does an incoming req see
system.mem_ctrls.rdQLenPdf::27                      0                       # What read queue length does an incoming req see
system.mem_ctrls.rdQLenPdf::28                      0                       # What read queue length does an incoming req see
system.mem_ctrls.rdQLenPdf::29                      0                       # What read queue length does an incoming req see
system.mem_ctrls.rdQLenPdf::30                      0                       # What read queue length does an incoming req see
system.mem_ctrls.rdQLenPdf::31                      0                       # What read queue length does an incoming req see
system.mem_ctrls.wrQLenPdf::0                       1                       # What write queue length does an incoming req see
system.mem_ctrls.wrQLenPdf::1                       1                       # What write queue length does an incoming req see
system.mem_ctrls.wrQLenPdf::2                       1                       # What write queue length does an incoming req see
system.mem_ctrls.wrQLenPdf::3                       1                       # What write queue length does an incoming req see
system.mem_ctrls.wrQLenPdf::4                       1                       # What write queue length does an incoming req see
system.mem_ctrls.wrQLenPdf::5                       1                       # What write queue length does an incoming req see
system.mem_ctrls.wrQLenPdf::6                       1                       # What write queue length does an incoming req see
system.mem_ctrls.wrQLenPdf::7                       1                       # What write queue length does an incoming req see
system.mem_ctrls.wrQLenPdf::8                       1                       # What write queue length does an incoming req see
system.mem_ctrls.wrQLenPdf::9                       1                       # What write queue length does an incoming req see
system.mem_ctrls.wrQLenPdf::10                      1                       # What write queue length does an incoming req see
system.mem_ctrls.wrQLenPdf::11                      1                       # What write queue length does an incoming req see
system.mem_ctrls.wrQLenPdf::12                      1                       # What write queue length does an incoming req see
system.mem_ctrls.wrQLenPdf::13                      1                       # What write queue length does an incoming req see
system.mem_ctrls.wrQLenPdf::14                      1                       # What write queue length does an incoming req see
system.mem_ctrls.wrQLenPdf::15                     17                       # What write queue length does an incoming req see
system.mem_ctrls.wrQLenPdf::16                     19                       # What write queue length does an incoming req see
system.mem_ctrls.wrQLenPdf::17                     21                       # What write queue length does an incoming req see
system.mem_ctrls.wrQLenPdf::18                     22                       # What write queue length does an incoming req see
system.mem_ctrls.wrQLenPdf::19                     23                       # What write queue length does an incoming req see
system.mem_ctrls.wrQLenPdf::20                     24                       # What write queue length does an incoming req see
system.mem_ctrls.wrQLenPdf::21                     24                       # What write queue length does an incoming req see
system.mem_ctrls.wrQLenPdf::22                     23                       # What write queue length does an incoming req see
system.mem_ctrls.wrQLenPdf::23                     23                       # What write queue length does an incoming req see
system.mem_ctrls.wrQLenPdf::24                     23                       # What write queue length does an incoming req see
system.mem_ctrls.wrQLenPdf::25                     24                       # What write queue length does an incoming req see
system.mem_ctrls.wrQLenPdf::26                     23                       # What write queue length does an incoming req see
system.mem_ctrls.wrQLenPdf::27                     23                       # What write queue length does an incoming req see
system.mem_ctrls.wrQLenPdf::28                     23                       # What write queue length does an incoming req see
system.mem_ctrls.wrQLenPdf::29                     22                       # What write queue length does an incoming req see
system.mem_ctrls.wrQLenPdf::30                     22                       # What write queue length does an incoming req see
system.mem_ctrls.wrQLenPdf::31                     22                       # What write queue length does an incoming req see
system.mem_ctrls.wrQLenPdf::32                     22                       # What write queue length does an incoming req see
system.mem_ctrls.wrQLenPdf::33                      0                       # What write queue length does an incoming req see
system.mem_ctrls.wrQLenPdf::34                      0                       # What write queue length does an incoming req see
system.mem_ctrls.wrQLenPdf::35                      0                       # What write queue length does an incoming req see
system.mem_ctrls.wrQLenPdf::36                      0                       # What write queue length does an incoming req see
system.mem_ctrls.wrQLenPdf::37                      0                       # What write queue length does an incoming req see
system.mem_ctrls.wrQLenPdf::38                      0                       # What write queue length does an incoming req see
system.mem_ctrls.wrQLenPdf::39                      0                       # What write queue length does an incoming req see
system.mem_ctrls.wrQLenPdf::40                      0                       # What write queue length does an incoming req see
system.mem_ctrls.wrQLenPdf::41                      0                       # What write queue length does an incoming req see
system.mem_ctrls.wrQLenPdf::42                      0                       # What write queue length does an incoming req see
system.mem_ctrls.wrQLenPdf::43                      0                       # What write queue length does an incoming req see
system.mem_ctrls.wrQLenPdf::44                      0                       # What write queue length does an incoming req see
system.mem_ctrls.wrQLenPdf::45                      0                       # What write queue length does an incoming req see
system.mem_ctrls.wrQLenPdf::46                      0                       # What write queue length does an incoming req see
system.mem_ctrls.wrQLenPdf::47                      0                       # What write queue length does an incoming req see
system.mem_ctrls.wrQLenPdf::48                      0                       # What write queue length does an incoming req see
system.mem_ctrls.wrQLenPdf::49                      0                       # What write queue length does an incoming req see
system.mem_ctrls.wrQLenPdf::50                      0                       # What write queue length does an incoming req see
system.mem_ctrls.wrQLenPdf::51                      0                       # What write queue length does an incoming req see
system.mem_ctrls.wrQLenPdf::52                      0                       # What write queue length does an incoming req see
system.mem_ctrls.wrQLenPdf::53                      0                       # What write queue length does an incoming req see
system.mem_ctrls.wrQLenPdf::54                      0                       # What write queue length does an incoming req see
system.mem_ctrls.wrQLenPdf::55                      0                       # What write queue length does an incoming req see
system.mem_ctrls.wrQLenPdf::56                      0                       # What write queue length does an incoming req see
system.mem_ctrls.wrQLenPdf::57                      0                       # What write queue length does an incoming req see
system.mem_ctrls.wrQLenPdf::58                      0                       # What write queue length does an incoming req see
system.mem_ctrls.wrQLenPdf::59                      0                       # What write queue length does an incoming req see
system.mem_ctrls.wrQLenPdf::60                      0                       # What write queue length does an incoming req see
system.mem_ctrls.wrQLenPdf::61                      0                       # What write queue length does an incoming req see
system.mem_ctrls.wrQLenPdf::62                      0                       # What write queue length does an incoming req see
system.mem_ctrls.wrQLenPdf::63                      0                       # What write queue length does an incoming req see
system.mem_ctrls.bytesPerActivate::samples         3035                       # Bytes accessed per row activation
system.mem_ctrls.bytesPerActivate::mean    155.582208                       # Bytes accessed per row activation
system.mem_ctrls.bytesPerActivate::gmean   103.774481                       # Bytes accessed per row activation
system.mem_ctrls.bytesPerActivate::stdev   210.713724                       # Bytes accessed per row activation
system.mem_ctrls.bytesPerActivate::0-127         1830     60.30%     60.30% # Bytes accessed per row activation
system.mem_ctrls.bytesPerActivate::128-255          813     26.79%     87.08% # Bytes accessed per row activation
system.mem_ctrls.bytesPerActivate::256-383          128      4.22%     91.30% # Bytes accessed per row activation
system.mem_ctrls.bytesPerActivate::384-511           50      1.65%     92.95% # Bytes accessed per row activation
system.mem_ctrls.bytesPerActivate::512-639           45      1.48%     94.43% # Bytes accessed per row activation
system.mem_ctrls.bytesPerActivate::640-767           20      0.66%     95.09% # Bytes accessed per row activation
system.mem_ctrls.bytesPerActivate::768-895           23      0.76%     95.85% # Bytes accessed per row activation
system.mem_ctrls.bytesPerActivate::896-1023           16      0.53%     96.38% # Bytes accessed per row activation
system.mem_ctrls.bytesPerActivate::1024-1151          110      3.62%    100.00% # Bytes accessed per row activation
system.mem_ctrls.bytesPerActivate::total         3035                       # Bytes accessed per row activation
system.mem_ctrls.rdPerTurnAround::samples           22                       # Reads before turning the bus around for writes
system.mem_ctrls.rdPerTurnAround::mean     298.272727                       # Reads before turning the bus around for writes
system.mem_ctrls.rdPerTurnAround::gmean     96.789236                       # Reads before turning the bus around for writes
system.mem_ctrls.rdPerTurnAround::stdev    665.428768                       # Reads before turning the bus around for writes
system.mem_ctrls.rdPerTurnAround::0-127            13     59.09%     59.09% # Reads before turning the bus around for writes
system.mem_ctrls.rdPerTurnAround::128-255            2      9.09%     68.18% # Reads before turning the bus around for writes
[...]
system.cpu.icache.tags.occ_task_id_blocks::1024          829                       # Occupied blocks per task id
system.cpu.icache.tags.age_task_id_blocks_1024::2            1                       # Occupied blocks per task id
system.cpu.icache.tags.age_task_id_blocks_1024::3            2                       # Occupied blocks per task id
system.cpu.icache.tags.age_task_id_blocks_1024::4          826                       # Occupied blocks per task id
system.cpu.icache.tags.occ_task_id_percent::1024     0.809570                       # Percentage of cache occupancy per task id
system.cpu.icache.tags.tag_accesses          17151012                       # Number of tag accesses
system.cpu.icache.tags.data_accesses         17151012                       # Number of data accesses
system.cpu.dtb.walker.pwrStateResidencyTicks::UNDEFINED 123333583000                       # Cumulative time (in ticks) in various power states
system.cpu.dtb.stage2_mmu.stage2_tlb.walker.pwrStateResidencyTicks::UNDEFINED 123333583000                       # Cumulative time (in ticks) in various power states
system.cpu.dcache.pwrStateResidencyTicks::UNDEFINED 123333583000                       # Cumulative time (in ticks) in various power states
system.cpu.dcache.demand_hits::.cpu.data     43588577                       # number of demand (read+write) hits
system.cpu.dcache.demand_hits::total         43588577                       # number of demand (read+write) hits
system.cpu.dcache.overall_hits::.cpu.data     43597083                       # number of overall hits
system.cpu.dcache.overall_hits::total        43597083                       # number of overall hits
system.cpu.dcache.demand_misses::.cpu.data       253297                       # number of demand (read+write) misses
system.cpu.dcache.demand_misses::total         253297                       # number of demand (read+write) misses
system.cpu.dcache.overall_misses::.cpu.data       253485                       # number of overall misses
system.cpu.dcache.overall_misses::total        253485                       # number of overall misses
system.cpu.dcache.demand_miss_latency::.cpu.data   8599067000                       # number of demand (read+write) miss cycles
system.cpu.dcache.demand_miss_latency::total   8599067000                       # number of demand (read+write) miss cycles
system.cpu.dcache.overall_miss_latency::.cpu.data   8599067000                       # number of overall miss cycles
system.cpu.dcache.overall_miss_latency::total   8599067000                       # number of overall miss cycles
system.cpu.dcache.demand_accesses::.cpu.data     43841874                       # number of demand (read+write) accesses
system.cpu.dcache.demand_accesses::total     43841874                       # number of demand (read+write) accesses
system.cpu.dcache.overall_accesses::.cpu.data     43850568                       # number of overall (read+write) accesses
system.cpu.dcache.overall_accesses::total     43850568                       # number of overall (read+write) accesses
system.cpu.dcache.demand_miss_rate::.cpu.data     0.005778                       # miss rate for demand accesses
system.cpu.dcache.demand_miss_rate::total     0.005778                       # miss rate for demand accesses
system.cpu.dcache.overall_miss_rate::.cpu.data     0.005781                       # miss rate for overall accesses
system.cpu.dcache.overall_miss_rate::total     0.005781                       # miss rate for overall accesses
system.cpu.dcache.demand_avg_miss_latency::.cpu.data 33948.554464                       # average overall miss latency
system.cpu.dcache.demand_avg_miss_latency::total 33948.554464                       # average overall miss latency
system.cpu.dcache.overall_avg_miss_latency::.cpu.data 33923.376137                       # average overall miss latency
system.cpu.dcache.overall_avg_miss_latency::total 33923.376137                       # average overall miss latency
system.cpu.dcache.blocked_cycles::no_mshrs          154                       # number of cycles access was blocked
system.cpu.dcache.blocked_cycles::no_targets            0                       # number of cycles access was blocked
system.cpu.dcache.blocked::no_mshrs                 6                       # number of cycles access was blocked
system.cpu.dcache.blocked::no_targets               0                       # number of cycles access was blocked
system.cpu.dcache.avg_blocked_cycles::no_mshrs    25.666667                       # average number of cycles each access was blocked
system.cpu.dcache.avg_blocked_cycles::no_targets          nan                       # average number of cycles each access was blocked
system.cpu.dcache.writebacks::.writebacks       227069                       # number of writebacks
system.cpu.dcache.writebacks::total            227069                       # number of writebacks
system.cpu.dcache.demand_mshr_hits::.cpu.data        15300                       # number of demand (read+write) MSHR hits
system.cpu.dcache.demand_mshr_hits::total        15300                       # number of demand (read+write) MSHR hits
system.cpu.dcache.overall_mshr_hits::.cpu.data        15300                       # number of overall MSHR hits
system.cpu.dcache.overall_mshr_hits::total        15300                       # number of overall MSHR hits
system.cpu.dcache.demand_mshr_misses::.cpu.data       237997                       # number of demand (read+write) MSHR misses
system.cpu.dcache.demand_mshr_misses::total       237997                       # number of demand (read+write) MSHR misses
system.cpu.dcache.overall_mshr_misses::.cpu.data       238169                       # number of overall MSHR misses
system.cpu.dcache.overall_mshr_misses::total       238169                       # number of overall MSHR misses
system.cpu.dcache.demand_mshr_miss_latency::.cpu.data   7541197000                       # number of demand (read+write) MSHR miss cycles
system.cpu.dcache.demand_mshr_miss_latency::total   7541197000                       # number of demand (read+write) MSHR miss cycles
system.cpu.dcache.overall_mshr_miss_latency::.cpu.data   7552513000                       # number of overall MSHR miss cycles
system.cpu.dcache.overall_mshr_miss_latency::total   7552513000                       # number of overall MSHR miss cycles
system.cpu.dcache.demand_mshr_miss_rate::.cpu.data     0.005429                       # mshr miss rate for demand accesses
system.cpu.dcache.demand_mshr_miss_rate::total     0.005429                       # mshr miss rate for demand accesses
system.cpu.dcache.overall_mshr_miss_rate::.cpu.data     0.005431                       # mshr miss rate for overall accesses
system.cpu.dcache.overall_mshr_miss_rate::total     0.005431                       # mshr miss rate for overall accesses
system.cpu.dcache.demand_avg_mshr_miss_latency::.cpu.data 31686.101085                       # average overall mshr miss latency
system.cpu.dcache.demand_avg_mshr_miss_latency::total 31686.101085                       # average overall mshr miss latency
system.cpu.dcache.overall_avg_mshr_miss_latency::.cpu.data 31710.730616                       # average overall mshr miss latency
system.cpu.dcache.overall_avg_mshr_miss_latency::total 31710.730616                       # average overall mshr miss latency
system.cpu.dcache.replacements                 237658                       # number of replacements
system.cpu.dcache.ReadReq_hits::.cpu.data     37360191                       # number of ReadReq hits
system.cpu.dcache.ReadReq_hits::total        37360191                       # number of ReadReq hits
system.cpu.dcache.ReadReq_misses::.cpu.data       156789                       # number of ReadReq misses
system.cpu.dcache.ReadReq_misses::total        156789                       # number of ReadReq misses
system.cpu.dcache.ReadReq_miss_latency::.cpu.data   5385794000                       # number of ReadReq miss cycles
system.cpu.dcache.ReadReq_miss_latency::total   5385794000                       # number of ReadReq miss cycles
system.cpu.dcache.ReadReq_accesses::.cpu.data     37516980                       # number of ReadReq accesses(hits+misses)
system.cpu.dcache.ReadReq_accesses::total     37516980                       # number of ReadReq accesses(hits+misses)
system.cpu.dcache.ReadReq_miss_rate::.cpu.data     0.004179                       # miss rate for ReadReq accesses
system.cpu.dcache.ReadReq_miss_rate::total     0.004179                       # miss rate for ReadReq accesses
system.cpu.dcache.ReadReq_avg_miss_latency::.cpu.data 34350.585819                       # average ReadReq miss latency
system.cpu.dcache.ReadReq_avg_miss_latency::total 34350.585819                       # average ReadReq miss latency
system.cpu.dcache.ReadReq_mshr_hits::.cpu.data         6769                       # number of ReadReq MSHR hits
system.cpu.dcache.ReadReq_mshr_hits::total         6769                       # number of ReadReq MSHR hits
system.cpu.dcache.ReadReq_mshr_misses::.cpu.data       150020                       # number of ReadReq MSHR misses
system.cpu.dcache.ReadReq_mshr_misses::total       150020                       # number of ReadReq MSHR misses
system.cpu.dcache.ReadReq_mshr_miss_latency::.cpu.data   4860035000                       # number of ReadReq MSHR miss cycles
system.cpu.dcache.ReadReq_mshr_miss_latency::total   4860035000                       # number of ReadReq MSHR miss cycles
system.cpu.dcache.ReadReq_mshr_miss_rate::.cpu.data     0.003999                       # mshr miss rate for ReadReq accesses
system.cpu.dcache.ReadReq_mshr_miss_rate::total     0.003999                       # mshr miss rate for ReadReq accesses
system.cpu.dcache.ReadReq_avg_mshr_miss_latency::.cpu.data 32395.913878                       # average ReadReq mshr miss latency
system.cpu.dcache.ReadReq_avg_mshr_miss_latency::total 32395.913878                       # average ReadReq mshr miss latency
system.cpu.dcache.WriteReq_hits::.cpu.data      6228386                       # number of WriteReq hits
system.cpu.dcache.WriteReq_hits::total        6228386                       # number of WriteReq hits
system.cpu.dcache.WriteReq_misses::.cpu.data        96508                       # number of WriteReq misses
system.cpu.dcache.WriteReq_misses::total        96508                       # number of WriteReq misses
system.cpu.dcache.WriteReq_miss_latency::.cpu.data   3213273000                       # number of WriteReq miss cycles
system.cpu.dcache.WriteReq_miss_latency::total   3213273000                       # number of WriteReq miss cycles
system.cpu.dcache.WriteReq_accesses::.cpu.data      6324894                       # number of WriteReq accesses(hits+misses)
system.cpu.dcache.WriteReq_accesses::total      6324894                       # number of WriteReq accesses(hits+misses)
system.cpu.dcache.WriteReq_miss_rate::.cpu.data     0.015258                       # miss rate for WriteReq accesses
system.cpu.dcache.WriteReq_miss_rate::total     0.015258                       # miss rate for WriteReq accesses
system.cpu.dcache.WriteReq_avg_miss_latency::.cpu.data 33295.405562                       # average WriteReq miss latency
system.cpu.dcache.WriteReq_avg_miss_latency::total 33295.405562                       # average WriteReq miss latency
system.cpu.dcache.WriteReq_mshr_hits::.cpu.data         8531                       # number of WriteReq MSHR hits
system.cpu.dcache.WriteReq_mshr_hits::total         8531                       # number of WriteReq MSHR hits
system.cpu.dcache.WriteReq_mshr_misses::.cpu.data        87977                       # number of WriteReq MSHR misses
system.cpu.dcache.WriteReq_mshr_misses::total        87977                       # number of WriteReq MSHR misses
system.cpu.dcache.WriteReq_mshr_miss_latency::.cpu.data   2681162000                       # number of WriteReq MSHR miss cycles
system.cpu.dcache.WriteReq_mshr_miss_latency::total   2681162000                       # number of WriteReq MSHR miss cycles
system.cpu.dcache.WriteReq_mshr_miss_rate::.cpu.data     0.013910                       # mshr miss rate for WriteReq accesses
system.cpu.dcache.WriteReq_mshr_miss_rate::total     0.013910                       # mshr miss rate for WriteReq accesses
system.cpu.dcache.WriteReq_avg_mshr_miss_latency::.cpu.data 30475.715244                       # average WriteReq mshr miss latency
system.cpu.dcache.WriteReq_avg_mshr_miss_latency::total 30475.715244                       # average WriteReq mshr miss latency
system.cpu.dcache.SoftPFReq_hits::.cpu.data         8506                       # number of SoftPFReq hits
system.cpu.dcache.SoftPFReq_hits::total          8506                       # number of SoftPFReq hits
system.cpu.dcache.SoftPFReq_misses::.cpu.data          188                       # number of SoftPFReq misses
system.cpu.dcache.SoftPFReq_misses::total          188                       # number of SoftPFReq misses
system.cpu.dcache.SoftPFReq_accesses::.cpu.data         8694                       # number of SoftPFReq accesses(hits+misses)
system.cpu.dcache.SoftPFReq_accesses::total         8694                       # number of SoftPFReq accesses(hits+misses)
system.cpu.dcache.SoftPFReq_miss_rate::.cpu.data     0.021624                       # miss rate for SoftPFReq accesses
system.cpu.dcache.SoftPFReq_miss_rate::total     0.021624                       # miss rate for SoftPFReq accesses
system.cpu.dcache.SoftPFReq_mshr_misses::.cpu.data          172                       # number of SoftPFReq MSHR misses
system.cpu.dcache.SoftPFReq_mshr_misses::total          172                       # number of SoftPFReq MSHR misses
system.cpu.dcache.SoftPFReq_mshr_miss_latency::.cpu.data     11316000                       # number of SoftPFReq MSHR miss cycles
system.cpu.dcache.SoftPFReq_mshr_miss_latency::total     11316000                       # number of SoftPFReq MSHR miss cycles
system.cpu.dcache.SoftPFReq_mshr_miss_rate::.cpu.data     0.019784                       # mshr miss rate for SoftPFReq accesses
system.cpu.dcache.SoftPFReq_mshr_miss_rate::total     0.019784                       # mshr miss rate for SoftPFReq accesses
system.cpu.dcache.SoftPFReq_avg_mshr_miss_latency::.cpu.data 65790.697674                       # average SoftPFReq mshr miss latency
system.cpu.dcache.SoftPFReq_avg_mshr_miss_latency::total 65790.697674                       # average SoftPFReq mshr miss latency
system.cpu.dcache.LoadLockedReq_hits::.cpu.data          165                       # number of LoadLockedReq hits
system.cpu.dcache.LoadLockedReq_hits::total          165                       # number of LoadLockedReq hits
system.cpu.dcache.LoadLockedReq_misses::.cpu.data            1                       # number of LoadLockedReq misses
system.cpu.dcache.LoadLockedReq_misses::total            1                       # number of LoadLockedReq misses
system.cpu.dcache.LoadLockedReq_miss_latency::.cpu.data        95000                       # number of LoadLockedReq miss cycles
system.cpu.dcache.LoadLockedReq_miss_latency::total        95000                       # number of LoadLockedReq miss cycles
system.cpu.dcache.LoadLockedReq_accesses::.cpu.data          166                       # number of LoadLockedReq accesses(hits+misses)
system.cpu.dcache.LoadLockedReq_accesses::total          166                       # number of LoadLockedReq accesses(hits+misses)
system.cpu.dcache.LoadLockedReq_miss_rate::.cpu.data     0.006024                       # miss rate for LoadLockedReq accesses
system.cpu.dcache.LoadLockedReq_miss_rate::total     0.006024                       # miss rate for LoadLockedReq accesses
system.cpu.dcache.LoadLockedReq_avg_miss_latency::.cpu.data        95000                       # average LoadLockedReq miss latency
system.cpu.dcache.LoadLockedReq_avg_miss_latency::total        95000                       # average LoadLockedReq miss latency
system.cpu.dcache.LoadLockedReq_mshr_misses::.cpu.data            1                       # number of LoadLockedReq MSHR misses
system.cpu.dcache.LoadLockedReq_mshr_misses::total            1                       # number of LoadLockedReq MSHR misses
system.cpu.dcache.LoadLockedReq_mshr_miss_latency::.cpu.data        93000                       # number of LoadLockedReq MSHR miss cycles
system.cpu.dcache.LoadLockedReq_mshr_miss_latency::total        93000                       # number of LoadLockedReq MSHR miss cycles
system.cpu.dcache.LoadLockedReq_mshr_miss_rate::.cpu.data     0.006024                       # mshr miss rate for LoadLockedReq accesses
system.cpu.dcache.LoadLockedReq_mshr_miss_rate::total     0.006024                       # mshr miss rate for LoadLockedReq accesses
system.cpu.dcache.LoadLockedReq_avg_mshr_miss_latency::.cpu.data        93000                       # average LoadLockedReq mshr miss latency
system.cpu.dcache.LoadLockedReq_avg_mshr_miss_latency::total        93000                       # average LoadLockedReq mshr miss latency
system.cpu.dcache.StoreCondReq_hits::.cpu.data          166                       # number of StoreCondReq hits
system.cpu.dcache.StoreCondReq_hits::total          166                       # number of StoreCondReq hits
system.cpu.dcache.StoreCondReq_accesses::.cpu.data          166                       # number of StoreCondReq accesses(hits+misses)
system.cpu.dcache.StoreCondReq_accesses::total          166                       # number of StoreCondReq accesses(hits+misses)
system.cpu.dcache.tags.pwrStateResidencyTicks::UNDEFINED 123333583000                       # Cumulative time (in ticks) in various power states
system.cpu.dcache.tags.tagsinuse           509.675187                       # Cycle average of tags in use
system.cpu.dcache.tags.total_refs            43835584                       # Total number of references to valid blocks.
system.cpu.dcache.tags.sampled_refs            238170                       # Sample count of references to valid blocks.
system.cpu.dcache.tags.avg_refs            184.051661                       # Average number of references to valid blocks.
system.cpu.dcache.tags.warmup_cycle            223000                       # Cycle when the warmup percentage was hit.
system.cpu.dcache.tags.occ_blocks::.cpu.data   509.675187                       # Average occupied blocks per requestor
system.cpu.dcache.tags.occ_percent::.cpu.data     0.995459                       # Average percentage of cache occupancy
system.cpu.dcache.tags.occ_percent::total     0.995459                       # Average percentage of cache occupancy
system.cpu.dcache.tags.occ_task_id_blocks::1024          512                       # Occupied blocks per task id
system.cpu.dcache.tags.age_task_id_blocks_1024::0            6                       # Occupied blocks per task id
system.cpu.dcache.tags.age_task_id_blocks_1024::1           46                       # Occupied blocks per task id
system.cpu.dcache.tags.age_task_id_blocks_1024::2          298                       # Occupied blocks per task id
system.cpu.dcache.tags.age_task_id_blocks_1024::3          162                       # Occupied blocks per task id
system.cpu.dcache.tags.occ_task_id_percent::1024            1                       # Percentage of cache occupancy per task id
system.cpu.dcache.tags.tag_accesses          44089070                       # Number of tag accesses
system.cpu.dcache.tags.data_accesses         44089070                       # Number of data accesses
system.cpu.itb.walker.pwrStateResidencyTicks::UNDEFINED 123333583000                       # Cumulative time (in ticks) in various power states
system.cpu.itb.stage2_mmu.stage2_tlb.walker.pwrStateResidencyTicks::UNDEFINED 123333583000                       # Cumulative time (in ticks) in various power states

---------- End Simulation Statistics   ----------
