
---------- Begin Simulation Statistics ----------
final_tick                               704192721000                       # Number of ticks from beginning of simulation (restored from checkpoints and never reset)
host_inst_rate                                 185805                       # Simulator instruction rate (inst/s)
host_mem_usage                                 713644                       # Number of bytes of host memory used
host_op_rate                                   342208                       # Simulator op (including micro ops) rate (op/s)
host_seconds                                   538.20                       # Real time elapsed on the host
host_tick_rate                             1308421642                       # Simulator tick rate (ticks/s)
sim_freq                                 1000000000000                       # Frequency of simulated ticks
sim_insts                                   100000001                       # Number of instructions simulated
sim_ops                                     184176409                       # Number of ops (including micro ops) simulated
sim_seconds                                  0.704193                       # Number of seconds simulated
sim_ticks                                704192721000                       # Number of ticks simulated
system.cpu.branchPred.BTBCorrect                    0                       # Number of correct BTB predictions (this stat may not work properly.
system.cpu.branchPred.BTBHitPct             99.956823                       # BTB Hit Percentage
system.cpu.branchPred.BTBHits                10561258                       # Number of BTB hits
system.cpu.branchPred.BTBLookups             10565820                       # Number of BTB lookups
system.cpu.branchPred.RASInCorrect                  5                       # Number of incorrect RAS predictions.
system.cpu.branchPred.condIncorrect              1454                       # Number of conditional branches incorrect
system.cpu.branchPred.condPredicted          10562173                       # Number of conditional branches predicted
system.cpu.branchPred.indirectHits                 29                       # Number of indirect target hits.
system.cpu.branchPred.indirectLookups             199                       # Number of indirect predictor lookups.
system.cpu.branchPred.indirectMisses              170                       # Number of indirect misses.
system.cpu.branchPred.lookups                10570411                       # Number of BP lookups
system.cpu.branchPred.usedRAS                    2704                       # Number of times the RAS was used to get a target.
system.cpu.branchPredindirectMispredicted          101                       # Number of mispredicted indirect branches.
system.cpu.committedInsts                   100000001                       # Number of instructions committed
system.cpu.committedOps                     184176409                       # Number of ops (including micro ops) committed
system.cpu.cpi                               7.041927                       # CPI: cycles per instruction
system.cpu.discardedOps                          4250                       # Number of ops (including micro ops) which were discarded before commit
system.cpu.dtb.accesses                             0                       # DTB accesses
system.cpu.dtb.align_faults                         0                       # Number of TLB faults due to alignment restrictions
system.cpu.dtb.domain_faults                        0                       # Number of TLB faults due to domain restrictions
system.cpu.dtb.flush_entries                        0                       # Number of entries that have been flushed from TLB
system.cpu.dtb.flush_tlb                            0                       # Number of times complete TLB was flushed
system.cpu.dtb.flush_tlb_asid                       0                       # Number of times TLB was flushed by ASID
system.cpu.dtb.flush_tlb_mva                        0                       # Number of times TLB was flushed by MVA
system.cpu.dtb.flush_tlb_mva_asid                   0                       # Number of times TLB was flushed by MVA & ASID
system.cpu.dtb.hits                                 0                       # DTB hits
system.cpu.dtb.inst_accesses                        0                       # ITB inst accesses
system.cpu.dtb.inst_hits                            0                       # ITB inst hits
system.cpu.dtb.inst_misses                          0                       # ITB inst misses
system.cpu.dtb.misses                               0                       # DTB misses
system.cpu.dtb.perms_faults                         0                       # Number of TLB faults due to permissions restrictions
system.cpu.dtb.prefetch_faults                      0                       # Number of TLB faults due to prefetch
system.cpu.dtb.read_accesses                        0                       # DTB read accesses
system.cpu.dtb.read_hits                            0                       # DTB read hits
system.cpu.dtb.read_misses                          0                       # DTB read misses
system.cpu.dtb.stage2_mmu.stage2_tlb.accesses            0                       # DTB accesses
system.cpu.dtb.stage2_mmu.stage2_tlb.align_faults            0                       # Number of TLB faults due to alignment restrictions
system.cpu.dtb.stage2_mmu.stage2_tlb.domain_faults            0                       # Number of TLB faults due to domain restrictions
system.cpu.dtb.stage2_mmu.stage2_tlb.flush_entries            0                       # Number of entries that have been flushed from TLB
system.cpu.dtb.stage2_mmu.stage2_tlb.flush_tlb            0                       # Number of times complete TLB was flushed
system.cpu.dtb.stage2_mmu.stage2_tlb.flush_tlb_asid            0                       # Number of times TLB was flushed by ASID
system.cpu.dtb.stage2_mmu.stage2_tlb.flush_tlb_mva            0                       # Number of times TLB was flushed by MVA
system.cpu.dtb.stage2_mmu.stage2_tlb.flush_tlb_mva_asid            0                       # Number of times TLB was flushed by MVA & ASID
system.cpu.dtb.stage2_mmu.stage2_tlb.hits            0                       # DTB hits
system.cpu.dtb.stage2_mmu.stage2_tlb.inst_accesses            0                       # ITB inst accesses
system.cpu.dtb.stage2_mmu.stage2_tlb.inst_hits            0                       # ITB inst hits
system.cpu.dtb.stage2_mmu.stage2_tlb.inst_misses            0                       # ITB inst misses
system.cpu.dtb.stage2_mmu.stage2_tlb.misses            0                       # DTB misses
system.cpu.dtb.stage2_mmu.stage2_tlb.perms_faults            0                       # Number of TLB faults due to permissions restrictions
system.cpu.dtb.stage2_mmu.stage2_tlb.prefetch_faults            0                       # Number of TLB faults due to prefetch
system.cpu.dtb.stage2_mmu.stage2_tlb.read_accesses            0                       # DTB read accesses
system.cpu.dtb.stage2_mmu.stage2_tlb.read_hits            0                       # DTB read hits
system.cpu.dtb.stage2_mmu.stage2_tlb.read_misses            0                       # DTB read misses
system.cpu.dtb.stage2_mmu.stage2_tlb.walker.walkRequestOrigin_Requested::Data            0                       # Table walker requests started/completed, data/inst
system.cpu.dtb.stage2_mmu.stage2_tlb.walker.walkRequestOrigin_Requested::Inst            0                       # Table walker requests started/completed, data/inst
system.cpu.dtb.stage2_mmu.stage2_tlb.walker.walkRequestOrigin_Requested::total            0                       # Table walker requests started/completed, data/inst
system.cpu.dtb.stage2_mmu.stage2_tlb.walker.walkRequestOrigin_Completed::Data            0                       # Table walker requests started/completed, data/inst
system.cpu.dtb.stage2_mmu.stage2_tlb.walker.walkRequestOrigin_Completed::Inst            0                       # Table walker requests started/completed, data/inst
system.cpu.dtb.stage2_mmu.stage2_tlb.walker.walkRequestOrigin_Completed::total            0                       # Table walker requests started/completed, data/inst
system.cpu.dtb.stage2_mmu.stage2_tlb.walker.walkRequestOrigin::total            0                       # Table walker requests started/completed, data/inst
system.cpu.dtb.stage2_mmu.stage2_tlb.walker.walks            0                       # Table walker walks requested
system.cpu.dtb.stage2_mmu.stage2_tlb.write_accesses            0                       # DTB write accesses
system.cpu.dtb.stage2_mmu.stage2_tlb.write_hits            0                       # DTB write hits
system.cpu.dtb.stage2_mmu.stage2_tlb.write_misses            0                       # DTB write misses
system.cpu.dtb.walker.walkRequestOrigin_Requested::Data            0                       # Table walker requests started/completed, data/inst
system.cpu.dtb.walker.walkRequestOrigin_Requested::Inst            0                       # Table walker requests started/completed, data/inst
system.cpu.dtb.walker.walkRequestOrigin_Requested::total            0                       # Table walker requests started/completed, data/inst
system.cpu.dtb.walker.walkRequestOrigin_Completed::Data            0                       # Table walker requests started/completed, data/inst
system.cpu.dtb.walker.walkRequestOrigin_Completed::Inst            0                       # Table walker requests started/completed, data/inst
system.cpu.dtb.walker.walkRequestOrigin_Completed::total            0                       # Table walker requests started/completed, data/inst
system.cpu.dtb.walker.walkRequestOrigin::total            0                       # Table walker requests started/completed, data/inst
system.cpu.dtb.walker.walks                         0                       # Table walker walks requested
system.cpu.dtb.write_accesses                       0                       # DTB write accesses
system.cpu.dtb.write_hits                           0                       # DTB write hits
system.cpu.dtb.write_misses                         0                       # DTB write misses
system.cpu.fetch2.amo_instructions                  0                       # Number of memory atomic instructions successfully decoded
system.cpu.fetch2.fp_instructions                   0                       # Number of floating point instructions successfully decoded
system.cpu.fetch2.int_instructions           44893808                       # Number of integer instructions successfully decoded
system.cpu.fetch2.load_instructions           2086127                       # Number of memory load instructions successfully decoded
system.cpu.fetch2.store_instructions           169118                       # Number of memory store instructions successfully decoded
system.cpu.fetch2.vec_instructions                  0                       # Number of SIMD instructions successfully decoded
system.cpu.idleCycles                       482981038                       # Total number of cycles that the object has spent stopped
system.cpu.ipc                               0.142007                       # IPC: instructions per cycle
system.cpu.itb.accesses                             0                       # DTB accesses
system.cpu.itb.align_faults                         0                       # Number of TLB faults due to alignment restrictions
system.cpu.itb.domain_faults                        0                       # Number of TLB faults due to domain restrictions
system.cpu.itb.flush_entries                        0                       # Number of entries that have been flushed from TLB
system.cpu.itb.flush_tlb                            0                       # Number of times complete TLB was flushed
system.cpu.itb.flush_tlb_asid                       0                       # Number of times TLB was flushed by ASID
system.cpu.itb.flush_tlb_mva                        0                       # Number of times TLB was flushed by MVA
system.cpu.itb.flush_tlb_mva_asid                   0                       # Number of times TLB was flushed by MVA & ASID
system.cpu.itb.hits                                 0                       # DTB hits
system.cpu.itb.inst_accesses                        0                       # ITB inst accesses
system.cpu.itb.inst_hits                            0                       # ITB inst hits
system.cpu.itb.inst_misses                          0                       # ITB inst misses
system.cpu.itb.misses                               0                       # DTB misses
system.cpu.itb.perms_faults                         0                       # Number of TLB faults due to permissions restrictions
system.cpu.itb.prefetch_faults                      0                       # Number of TLB faults due to prefetch
system.cpu.itb.read_accesses                        0                       # DTB read accesses
system.cpu.itb.read_hits                            0                       # DTB read hits
system.cpu.itb.read_misses                          0                       # DTB read misses
system.cpu.itb.stage2_mmu.stage2_tlb.accesses            0                       # DTB accesses
system.cpu.itb.stage2_mmu.stage2_tlb.align_faults            0                       # Number of TLB faults due to alignment restrictions
system.cpu.itb.stage2_mmu.stage2_tlb.domain_faults            0                       # Number of TLB faults due to domain restrictions
system.cpu.itb.stage2_mmu.stage2_tlb.flush_entries            0                       # Number of entries that have been flushed from TLB
system.cpu.itb.stage2_mmu.stage2_tlb.flush_tlb            0                       # Number of times complete TLB was flushed
system.cpu.itb.stage2_mmu.stage2_tlb.flush_tlb_asid            0                       # Number of times TLB was flushed by ASID
system.cpu.itb.stage2_mmu.stage2_tlb.flush_tlb_mva            0                       # Number of times TLB was flushed by MVA
system.cpu.itb.stage2_mmu.stage2_tlb.flush_tlb_mva_asid            0                       # Number of times TLB was flushed by MVA & ASID
system.cpu.itb.stage2_mmu.stage2_tlb.hits            0                       # DTB hits
system.cpu.itb.stage2_mmu.stage2_tlb.inst_accesses            0                       # ITB inst accesses
system.cpu.itb.stage2_mmu.stage2_tlb.inst_hits            0                       # ITB inst hits
system.cpu.itb.stage2_mmu.stage2_tlb.inst_misses            0                       # ITB inst misses
system.cpu.itb.stage2_mmu.stage2_tlb.misses            0                       # DTB misses
system.cpu.itb.stage2_mmu.stage2_tlb.perms_faults            0                       # Number of TLB faults due to permissions restrictions
system.cpu.itb.stage2_mmu.stage2_tlb.prefetch_faults            0                       # Number of TLB faults due to prefetch
system.cpu.itb.stage2_mmu.stage2_tlb.read_accesses            0                       # DTB read accesses
system.cpu.itb.stage2_mmu.stage2_tlb.read_hits            0                       # DTB read hits
system.cpu.itb.stage2_mmu.stage2_tlb.read_misses            0                       # DTB read misses
system.cpu.itb.stage2_mmu.stage2_tlb.walker.walkRequestOrigin_Requested::Data            0                       # Table walker requests started/completed, data/inst
system.cpu.itb.stage2_mmu.stage2_tlb.walker.walkRequestOrigin_Requested::Inst            0                       # Table walker requests started/completed, data/inst
system.cpu.itb.stage2_mmu.stage2_tlb.walker.walkRequestOrigin_Requested::total            0                       # Table walker requests started/completed, data/inst
system.cpu.itb.stage2_mmu.stage2_tlb.walker.walkRequestOrigin_Completed::Data            0                       # Table walker requests started/completed, data/inst
system.cpu.itb.stage2_mmu.stage2_tlb.walker.walkRequestOrigin_Completed::Inst            0                       # Table walker requests started/completed, data/inst
system.cpu.itb.stage2_mmu.stage2_tlb.walker.walkRequestOrigin_Completed::total            0                       # Table walker requests started/completed, data/inst
system.cpu.itb.stage2_mmu.stage2_tlb.walker.walkRequestOrigin::total            0                       # Table walker requests started/completed, data/inst
system.cpu.itb.stage2_mmu.stage2_tlb.walker.walks            0                       # Table walker walks requested
system.cpu.itb.stage2_mmu.stage2_tlb.write_accesses            0                       # DTB write accesses
system.cpu.itb.stage2_mmu.stage2_tlb.write_hits            0                       # DTB write hits
system.cpu.itb.stage2_mmu.stage2_tlb.write_misses            0                       # DTB write misses
system.cpu.itb.walker.walkRequestOrigin_Requested::Data            0                       # Table walker requests started/completed, data/inst
system.cpu.itb.walker.walkRequestOrigin_Requested::Inst            0                       # Table walker requests started/completed, data/inst
system.cpu.itb.walker.walkRequestOrigin_Requested::total            0                       # Table walker requests started/completed, data/inst
system.cpu.itb.walker.walkRequestOrigin_Completed::Data            0                       # Table walker requests started/completed, data/inst
system.cpu.itb.walker.walkRequestOrigin_Completed::Inst            0                       # Table walker requests started/completed, data/inst
system.cpu.itb.walker.walkRequestOrigin_Completed::total            0                       # Table walker requests started/completed, data/inst
system.cpu.itb.walker.walkRequestOrigin::total            0                       # Table walker requests started/completed, data/inst
system.cpu.itb.walker.walks                         0                       # Table walker walks requested
system.cpu.itb.write_accesses                       0                       # DTB write accesses
system.cpu.itb.write_hits                           0                       # DTB write hits
system.cpu.itb.write_misses                         0                       # DTB write misses
system.cpu.numCycles                        704192721                       # number of cpu cycles simulated
system.cpu.numFetchSuspends                         0                       # Number of times Execute suspended instruction fetching
system.cpu.numWorkItemsCompleted                    0                       # number of work items this cpu completed
system.cpu.numWorkItemsStarted                      0                       # number of work items this cpu started
system.cpu.op_class_0::No_OpClass                   0      0.00%      0.00% # Class of committed instruction
system.cpu.op_class_0::IntAlu                97640473     53.01%     53.01% # Class of committed instruction
system.cpu.op_class_0::IntMult                 114699      0.06%     53.08% # Class of committed instruction
system.cpu.op_class_0::IntDiv                       0      0.00%     53.08% # Class of committed instruction
system.cpu.op_class_0::FloatAdd                     0      0.00%     53.08% # Class of committed instruction
system.cpu.op_class_0::FloatCmp                     0      0.00%     53.08% # Class of committed instruction
system.cpu.op_class_0::FloatCvt                     0      0.00%     53.08% # Class of committed instruction
system.cpu.op_class_0::FloatMult                    0      0.00%     53.08% # Class of committed instruction
system.cpu.op_class_0::FloatMultAcc                 0      0.00%     53.08% # Class of committed instruction
system.cpu.op_class_0::FloatDiv                     0      0.00%     53.08% # Class of committed instruction
system.cpu.op_class_0::FloatMisc                    0      0.00%     53.08% # Class of committed instruction
system.cpu.op_class_0::FloatSqrt                    0      0.00%     53.08% # Class of committed instruction
system.cpu.op_class_0::SimdAdd                      8      0.00%     53.08% # Class of committed instruction
system.cpu.op_class_0::SimdAddAcc                   0      0.00%     53.08% # Class of committed instruction
system.cpu.op_class_0::SimdAlu                      8      0.00%     53.08% # Class of committed instruction
system.cpu.op_class_0::SimdCmp                      6      0.00%     53.08% # Class of committed instruction
system.cpu.op_class_0::SimdCvt                      0      0.00%     53.08% # Class of committed instruction
system.cpu.op_class_0::SimdMisc                     1      0.00%     53.08% # Class of committed instruction
system.cpu.op_class_0::SimdMult                     0      0.00%     53.08% # Class of committed instruction
system.cpu.op_class_0::SimdMultAcc                  0      0.00%     53.08% # Class of committed instruction
system.cpu.op_class_0::SimdShift                    0      0.00%     53.08% # Class of committed instruction
system.cpu.op_class_0::SimdShiftAcc                 0      0.00%     53.08% # Class of committed instruction
system.cpu.op_class_0::SimdDiv                      0      0.00%     53.08% # Class of committed instruction
system.cpu.op_class_0::SimdSqrt                     0      0.00%     53.08% # Class of committed instruction
system.cpu.op_class_0::SimdFloatAdd                 0      0.00%     53.08% # Class of committed instruction
system.cpu.op_class_0::SimdFloatAlu                 0      0.00%     53.08% # Class of committed instruction
system.cpu.op_class_0::SimdFloatCmp                 0      0.00%     53.08% # Class of committed instruction
system.cpu.op_class_0::SimdFloatCvt                 0      0.00%     53.08% # Class of committed instruction
system.cpu.op_class_0::SimdFloatDiv                 0      0.00%     53.08% # Class of committed instruction
system.cpu.op_class_0::SimdFloatMisc                6      0.00%     53.08% # Class of committed instruction
system.cpu.op_class_0::SimdFloatMult                0      0.00%     53.08% # Class of committed instruction
system.cpu.op_class_0::SimdFloatMultAcc             0      0.00%     53.08% # Class of committed instruction
system.cpu.op_class_0::SimdFloatSqrt                0      0.00%     53.08% # Class of committed instruction
system.cpu.op_class_0::SimdReduceAdd                0      0.00%     53.08% # Class of committed instruction
system.cpu.op_class_0::SimdReduceAlu                0      0.00%     53.08% # Class of committed instruction
system.cpu.op_class_0::SimdReduceCmp                0      0.00%     53.08% # Class of committed instruction
system.cpu.op_class_0::SimdFloatReduceAdd            0      0.00%     53.08% # Class of committed instruction
system.cpu.op_class_0::SimdFloatReduceCmp            0      0.00%     53.08% # Class of committed instruction
system.cpu.op_class_0::SimdAes                      0      0.00%     53.08% # Class of committed instruction
system.cpu.op_class_0::SimdAesMix                   0      0.00%     53.08% # Class of committed instruction
system.cpu.op_class_0::SimdSha1Hash                 0      0.00%     53.08% # Class of committed instruction
system.cpu.op_class_0::SimdSha1Hash2                0      0.00%     53.08% # Class of committed instruction
system.cpu.op_class_0::SimdSha256Hash               0      0.00%     53.08% # Class of committed instruction
system.cpu.op_class_0::SimdSha256Hash2              0      0.00%     53.08% # Class of committed instruction
system.cpu.op_class_0::SimdShaSigma2                0      0.00%     53.08% # Class of committed instruction
system.cpu.op_class_0::SimdShaSigma3                0      0.00%     53.08% # Class of committed instruction
system.cpu.op_class_0::SimdPredAlu                  0      0.00%     53.08% # Class of committed instruction
system.cpu.op_class_0::MemRead                2082588      1.13%     54.21% # Class of committed instruction
system.cpu.op_class_0::MemWrite              84338620     45.79%    100.00% # Class of committed instruction
system.cpu.op_class_0::FloatMemRead                 0      0.00%    100.00% # Class of committed instruction
system.cpu.op_class_0::FloatMemWrite                0      0.00%    100.00% # Class of committed instruction
system.cpu.op_class_0::IprAccess                    0      0.00%    100.00% # Class of committed instruction
system.cpu.op_class_0::InstPrefetch                 0      0.00%    100.00% # Class of committed instruction
system.cpu.op_class_0::total                184176409                       # Class of committed instruction
system.cpu.tickCycles                       221211683                       # Number of cycles that the object actually ticked
system.cpu.workload.numSyscalls                    19                       # Number of system calls
system.membus.snoop_filter.hit_multi_requests            0                       # Number of requests hitting in the snoop filter with multiple (>1) holders of the requested data.
system.membus.snoop_filter.hit_multi_snoops            0                       # Number of snoops hitting in the snoop filter with multiple (>1) holders of the requested data.
system.membus.snoop_filter.hit_single_requests      5246944                       # Number of requests hitting in the snoop filter with a single holder of the requested data.
system.membus.snoop_filter.hit_single_snoops            0                       # Number of snoops hitting in the snoop filter with a single holder of the requested data.
system.membus.snoop_filter.tot_requests      10510772                       # Total number of requests made to the snoop filter.
system.membus.snoop_filter.tot_snoops               0                       # Total number of snoops made to the snoop filter.
system.tol2bus.snoop_filter.hit_multi_requests          519                       # Number of requests hitting in the snoop filter with multiple (>1) holders of the requested data.
system.tol2bus.snoop_filter.hit_multi_snoops            0                       # Number of snoops hitting in the snoop filter with multiple (>1) holders of the requested data.
system.tol2bus.snoop_filter.hit_single_requests      5270043                       # Number of requests hitting in the snoop filter with a single holder of the requested data.
system.tol2bus.snoop_filter.hit_single_snoops          555                       # Number of snoops hitting in the snoop filter with a single holder of the requested data.
system.tol2bus.snoop_filter.tot_requests     10541108                       # Total number of requests made to the snoop filter.
system.tol2bus.snoop_filter.tot_snoops            555                       # Total number of snoops made to the snoop filter.
system.membus.pwrStateResidencyTicks::UNDEFINED 704192721000                       # Cumulative time (in ticks) in various power states
system.membus.trans_dist::ReadResp                848                       # Transaction distribution
system.membus.trans_dist::WritebackDirty      5246637                       # Transaction distribution
system.membus.trans_dist::CleanEvict              297                       # Transaction distribution
system.membus.trans_dist::ReadExReq           5262990                       # Transaction distribution
system.membus.trans_dist::ReadExResp          5262990                       # Transaction distribution
system.membus.trans_dist::ReadSharedReq           848                       # Transaction distribution
system.membus.pkt_count_system.l2.mem_side::system.mem_ctrls.port     15774610                       # Packet count per connected master and slave (bytes)
system.membus.pkt_count::total               15774610                       # Packet count per connected master and slave (bytes)
system.membus.pkt_size_system.l2.mem_side::system.mem_ctrls.port    672670400                       # Cumulative packet size per connected master and slave (bytes)
system.membus.pkt_size::total               672670400                       # Cumulative packet size per connected master and slave (bytes)
system.membus.snoops                                0                       # Total snoops (count)
system.membus.snoopTraffic                          0                       # Total snoop traffic (bytes)
system.membus.snoop_fanout::samples           5263838                       # Request fanout histogram
system.membus.snoop_fanout::mean                    0                       # Request fanout histogram
system.membus.snoop_fanout::stdev                   0                       # Request fanout histogram
system.membus.snoop_fanout::underflows              0      0.00%      0.00% # Request fanout histogram
system.membus.snoop_fanout::0                 5263838    100.00%    100.00% # Request fanout histogram
system.membus.snoop_fanout::1                       0      0.00%    100.00% # Request fanout histogram
system.membus.snoop_fanout::overflows               0      0.00%    100.00% # Request fanout histogram
system.membus.snoop_fanout::min_value               0                       # Request fanout histogram
system.membus.snoop_fanout::max_value               0                       # Request fanout histogram
system.membus.snoop_fanout::total             5263838                       # Request fanout histogram
system.membus.respLayer1.occupancy        27694678750                       # Layer occupancy (ticks)
system.membus.respLayer1.utilization              3.9                       # Layer utilization (%)
system.membus.reqLayer0.occupancy         31497320000                       # Layer occupancy (ticks)
system.membus.reqLayer0.utilization               4.5                       # Layer utilization (%)
system.tol2bus.pwrStateResidencyTicks::UNDEFINED 704192721000                       # Cumulative time (in ticks) in various power states
system.tol2bus.trans_dist::ReadResp              4647                       # Transaction distribution
system.tol2bus.trans_dist::WritebackDirty     10513137                       # Transaction distribution
system.tol2bus.trans_dist::WritebackClean          135                       # Transaction distribution
system.tol2bus.trans_dist::CleanEvict            4260                       # Transaction distribution
system.tol2bus.trans_dist::ReadExReq          5266418                       # Transaction distribution
system.tol2bus.trans_dist::ReadExResp         5266418                       # Transaction distribution
system.tol2bus.trans_dist::ReadCleanReq           645                       # Transaction distribution
system.tol2bus.trans_dist::ReadSharedReq         4002                       # Transaction distribution
system.tol2bus.pkt_count_system.cpu.icache.mem_side::system.l2.cpu_side         1425                       # Packet count per connected master and slave (bytes)
system.tol2bus.pkt_count_system.cpu.dcache.mem_side::system.l2.cpu_side     15810748                       # Packet count per connected master and slave (bytes)
system.tol2bus.pkt_count::total              15812173                       # Packet count per connected master and slave (bytes)
system.tol2bus.pkt_size_system.cpu.icache.mem_side::system.l2.cpu_side        49920                       # Cumulative packet size per connected master and slave (bytes)
system.tol2bus.pkt_size_system.cpu.dcache.mem_side::system.l2.cpu_side    674362880                       # Cumulative packet size per connected master and slave (bytes)
system.tol2bus.pkt_size::total              674412800                       # Cumulative packet size per connected master and slave (bytes)
system.tol2bus.snoops                         5247489                       # Total snoops (count)
system.tol2bus.snoopTraffic                 335784768                       # Total snoop traffic (bytes)
system.tol2bus.snoop_fanout::samples         10518554                       # Request fanout histogram
system.tol2bus.snoop_fanout::mean            0.000102                       # Request fanout histogram
system.tol2bus.snoop_fanout::stdev           0.010104                       # Request fanout histogram
system.tol2bus.snoop_fanout::underflows             0      0.00%      0.00% # Request fanout histogram
system.tol2bus.snoop_fanout::0               10517480     99.99%     99.99% # Request fanout histogram
system.tol2bus.snoop_fanout::1                   1074      0.01%    100.00% # Request fanout histogram
system.tol2bus.snoop_fanout::2                      0      0.00%    100.00% # Request fanout histogram
system.tol2bus.snoop_fanout::overflows              0      0.00%    100.00% # Request fanout histogram
system.tol2bus.snoop_fanout::min_value              0                       # Request fanout histogram
system.tol2bus.snoop_fanout::max_value              1                       # Request fanout histogram
system.tol2bus.snoop_fanout::total           10518554                       # Request fanout histogram
system.tol2bus.reqLayer0.occupancy        21074378000                       # Layer occupancy (ticks)
system.tol2bus.reqLayer0.utilization              3.0                       # Layer utilization (%)
system.tol2bus.respLayer1.occupancy       15811263996                       # Layer occupancy (ticks)
system.tol2bus.respLayer1.utilization             2.2                       # Layer utilization (%)
system.tol2bus.respLayer0.occupancy           1935000                       # Layer occupancy (ticks)
system.tol2bus.respLayer0.utilization             0.0                       # Layer utilization (%)
system.voltage_domain.voltage                       1                       # Voltage in Volts
system.clk_domain.clock                          1000                       # Clock period in ticks
system.l2.pwrStateResidencyTicks::UNDEFINED 704192721000                       # Cumulative time (in ticks) in various power states
system.l2.demand_hits::.cpu.inst                   65                       # number of demand (read+write) hits
system.l2.demand_hits::.cpu.data                 7158                       # number of demand (read+write) hits
system.l2.demand_hits::total                     7223                       # number of demand (read+write) hits
system.l2.overall_hits::.cpu.inst                  65                       # number of overall hits
system.l2.overall_hits::.cpu.data                7158                       # number of overall hits
system.l2.overall_hits::total                    7223                       # number of overall hits
system.l2.demand_misses::.cpu.inst                580                       # number of demand (read+write) misses
system.l2.demand_misses::.cpu.data            5263262                       # number of demand (read+write) misses
system.l2.demand_misses::total                5263842                       # number of demand (read+write) misses
system.l2.overall_misses::.cpu.inst               580                       # number of overall misses
system.l2.overall_misses::.cpu.data           5263262                       # number of overall misses
system.l2.overall_misses::total               5263842                       # number of overall misses
system.l2.demand_miss_latency::.cpu.inst     57859000                       # number of demand (read+write) miss cycles
system.l2.demand_miss_latency::.cpu.data 524821757000                       # number of demand (read+write) miss cycles
system.l2.demand_miss_latency::total     524879616000                       # number of demand (read+write) miss cycles
system.l2.overall_miss_latency::.cpu.inst     57859000                       # number of overall miss cycles
system.l2.overall_miss_latency::.cpu.data 524821757000                       # number of overall miss cycles
system.l2.overall_miss_latency::total    524879616000                       # number of overall miss cycles
system.l2.demand_accesses::.cpu.inst              645                       # number of demand (read+write) accesses
system.l2.demand_accesses::.cpu.data          5270420                       # number of demand (read+write) accesses
system.l2.demand_accesses::total              5271065                       # number of demand (read+write) accesses
system.l2.overall_accesses::.cpu.inst             645                       # number of overall (read+write) accesses
system.l2.overall_accesses::.cpu.data         5270420                       # number of overall (read+write) accesses
system.l2.overall_accesses::total             5271065                       # number of overall (read+write) accesses
system.l2.demand_miss_rate::.cpu.inst        0.899225                       # miss rate for demand accesses
system.l2.demand_miss_rate::.cpu.data        0.998642                       # miss rate for demand accesses
system.l2.demand_miss_rate::total            0.998630                       # miss rate for demand accesses
system.l2.overall_miss_rate::.cpu.inst       0.899225                       # miss rate for overall accesses
system.l2.overall_miss_rate::.cpu.data       0.998642                       # miss rate for overall accesses
system.l2.overall_miss_rate::total           0.998630                       # miss rate for overall accesses
system.l2.demand_avg_miss_latency::.cpu.inst 99756.896552                       # average overall miss latency
system.l2.demand_avg_miss_latency::.cpu.data 99714.161484                       # average overall miss latency
system.l2.demand_avg_miss_latency::total 99714.166193                       # average overall miss latency
system.l2.overall_avg_miss_latency::.cpu.inst 99756.896552                       # average overall miss latency
system.l2.overall_avg_miss_latency::.cpu.data 99714.161484                       # average overall miss latency
system.l2.overall_avg_miss_latency::total 99714.166193                       # average overall miss latency
system.l2.blocked_cycles::no_mshrs                  0                       # number of cycles access was blocked
system.l2.blocked_cycles::no_targets                0                       # number of cycles access was blocked
system.l2.blocked::no_mshrs                         0                       # number of cycles access was blocked
system.l2.blocked::no_targets                       0                       # number of cycles access was blocked
system.l2.avg_blocked_cycles::no_mshrs            nan                       # average number of cycles each access was blocked
system.l2.avg_blocked_cycles::no_targets          nan                       # average number of cycles each access was blocked
system.l2.writebacks::.writebacks             5246637                       # number of writebacks
system.l2.writebacks::total                   5246637                       # number of writebacks
system.l2.demand_mshr_hits::.cpu.data               4                       # number of demand (read+write) MSHR hits
system.l2.demand_mshr_hits::total                   4                       # number of demand (read+write) MSHR hits
system.l2.overall_mshr_hits::.cpu.data              4                       # number of overall MSHR hits
system.l2.overall_mshr_hits::total                  4                       # number of overall MSHR hits
system.l2.demand_mshr_misses::.cpu.inst           580                       # number of demand (read+write) MSHR misses
system.l2.demand_mshr_misses::.cpu.data       5263258                       # number of demand (read+write) MSHR misses
system.l2.demand_mshr_misses::total           5263838                       # number of demand (read+write) MSHR misses
system.l2.overall_mshr_misses::.cpu.inst          580                       # number of overall MSHR misses
system.l2.overall_mshr_misses::.cpu.data      5263258                       # number of overall MSHR misses
system.l2.overall_mshr_misses::total          5263838                       # number of overall MSHR misses
system.l2.demand_mshr_miss_latency::.cpu.inst     46259000                       # number of demand (read+write) MSHR miss cycles
system.l2.demand_mshr_miss_latency::.cpu.data 419556264000                       # number of demand (read+write) MSHR miss cycles
system.l2.demand_mshr_miss_latency::total 419602523000                       # number of demand (read+write) MSHR miss cycles
system.l2.overall_mshr_miss_latency::.cpu.inst     46259000                       # number of overall MSHR miss cycles
system.l2.overall_mshr_miss_latency::.cpu.data 419556264000                       # number of overall MSHR miss cycles
system.l2.overall_mshr_miss_latency::total 419602523000                       # number of overall MSHR miss cycles
system.l2.demand_mshr_miss_rate::.cpu.inst     0.899225                       # mshr miss rate for demand accesses
system.l2.demand_mshr_miss_rate::.cpu.data     0.998641                       # mshr miss rate for demand accesses
system.l2.demand_mshr_miss_rate::total       0.998629                       # mshr miss rate for demand accesses
system.l2.overall_mshr_miss_rate::.cpu.inst     0.899225                       # mshr miss rate for overall accesses
system.l2.overall_mshr_miss_rate::.cpu.data     0.998641                       # mshr miss rate for overall accesses
system.l2.overall_mshr_miss_rate::total      0.998629                       # mshr miss rate for overall accesses
system.l2.demand_avg_mshr_miss_latency::.cpu.inst 79756.896552                       # average overall mshr miss latency
system.l2.demand_avg_mshr_miss_latency::.cpu.data 79714.173996                       # average overall mshr miss latency
system.l2.demand_avg_mshr_miss_latency::total 79714.178704                       # average overall mshr miss latency
system.l2.overall_avg_mshr_miss_latency::.cpu.inst 79756.896552                       # average overall mshr miss latency
system.l2.overall_avg_mshr_miss_latency::.cpu.data 79714.173996                       # average overall mshr miss latency
system.l2.overall_avg_mshr_miss_latency::total 79714.178704                       # average overall mshr miss latency
system.l2.replacements                        5247489                       # number of replacements
system.l2.WritebackDirty_hits::.writebacks      5266500                       # number of WritebackDirty hits
system.l2.WritebackDirty_hits::total          5266500                       # number of WritebackDirty hits
system.l2.WritebackDirty_accesses::.writebacks      5266500                       # number of WritebackDirty accesses(hits+misses)
system.l2.WritebackDirty_accesses::total      5266500                       # number of WritebackDirty accesses(hits+misses)
system.l2.WritebackClean_hits::.writebacks          130                       # number of WritebackClean hits
system.l2.WritebackClean_hits::total              130                       # number of WritebackClean hits
system.l2.WritebackClean_accesses::.writebacks          130                       # number of WritebackClean accesses(hits+misses)
system.l2.WritebackClean_accesses::total          130                       # number of WritebackClean accesses(hits+misses)
system.l2.ReadExReq_hits::.cpu.data              3428                       # number of ReadExReq hits
system.l2.ReadExReq_hits::total                  3428                       # number of ReadExReq hits
system.l2.ReadExReq_misses::.cpu.data         5262990                       # number of ReadExReq misses
system.l2.ReadExReq_misses::total             5262990                       # number of ReadExReq misses
system.l2.ReadExReq_miss_latency::.cpu.data 524793568000                       # number of ReadExReq miss cycles
system.l2.ReadExReq_miss_latency::total  524793568000                       # number of ReadExReq miss cycles
system.l2.ReadExReq_accesses::.cpu.data       5266418                       # number of ReadExReq accesses(hits+misses)
system.l2.ReadExReq_accesses::total           5266418                       # number of ReadExReq accesses(hits+misses)
system.l2.ReadExReq_miss_rate::.cpu.data     0.999349                       # miss rate for ReadExReq accesses
system.l2.ReadExReq_miss_rate::total         0.999349                       # miss rate for ReadExReq accesses
system.l2.ReadExReq_avg_miss_latency::.cpu.data 99713.958795                       # average ReadExReq miss latency
system.l2.ReadExReq_avg_miss_latency::total 99713.958795                       # average ReadExReq miss latency
system.l2.ReadExReq_mshr_misses::.cpu.data      5262990                       # number of ReadExReq MSHR misses
system.l2.ReadExReq_mshr_misses::total        5262990                       # number of ReadExReq MSHR misses
system.l2.ReadExReq_mshr_miss_latency::.cpu.data 419533768000                       # number of ReadExReq MSHR miss cycles
system.l2.ReadExReq_mshr_miss_latency::total 419533768000                       # number of ReadExReq MSHR miss cycles
system.l2.ReadExReq_mshr_miss_rate::.cpu.data     0.999349                       # mshr miss rate for ReadExReq accesses
system.l2.ReadExReq_mshr_miss_rate::total     0.999349                       # mshr miss rate for ReadExReq accesses
system.l2.ReadExReq_avg_mshr_miss_latency::.cpu.data 79713.958795                       # average ReadExReq mshr miss latency
system.l2.ReadExReq_avg_mshr_miss_latency::total 79713.958795                       # average ReadExReq mshr miss latency
system.l2.ReadCleanReq_hits::.cpu.inst             65                       # number of ReadCleanReq hits
system.l2.ReadCleanReq_hits::total                 65                       # number of ReadCleanReq hits
system.l2.ReadCleanReq_misses::.cpu.inst          580                       # number of ReadCleanReq misses
system.l2.ReadCleanReq_misses::total              580                       # number of ReadCleanReq misses
system.l2.ReadCleanReq_miss_latency::.cpu.inst     57859000                       # number of ReadCleanReq miss cycles
system.l2.ReadCleanReq_miss_latency::total     57859000                       # number of ReadCleanReq miss cycles
system.l2.ReadCleanReq_accesses::.cpu.inst          645                       # number of ReadCleanReq accesses(hits+misses)
system.l2.ReadCleanReq_accesses::total            645                       # number of ReadCleanReq accesses(hits+misses)
system.l2.ReadCleanReq_miss_rate::.cpu.inst     0.899225                       # miss rate for ReadCleanReq accesses
system.l2.ReadCleanReq_miss_rate::total      0.899225                       # miss rate for ReadCleanReq accesses
system.l2.ReadCleanReq_avg_miss_latency::.cpu.inst 99756.896552                       # average ReadCleanReq miss latency
system.l2.ReadCleanReq_avg_miss_latency::total 99756.896552                       # average ReadCleanReq miss latency
system.l2.ReadCleanReq_mshr_misses::.cpu.inst          580                       # number of ReadCleanReq MSHR misses
system.l2.ReadCleanReq_mshr_misses::total          580                       # number of ReadCleanReq MSHR misses
system.l2.ReadCleanReq_mshr_miss_latency::.cpu.inst     46259000                       # number of ReadCleanReq MSHR miss cycles
system.l2.ReadCleanReq_mshr_miss_latency::total     46259000                       # number of ReadCleanReq MSHR miss cycles
system.l2.ReadCleanReq_mshr_miss_rate::.cpu.inst     0.899225                       # mshr miss rate for ReadCleanReq accesses
system.l2.ReadCleanReq_mshr_miss_rate::total     0.899225                       # mshr miss rate for ReadCleanReq accesses
system.l2.ReadCleanReq_avg_mshr_miss_latency::.cpu.inst 79756.896552                       # average ReadCleanReq mshr miss latency
system.l2.ReadCleanReq_avg_mshr_miss_latency::total 79756.896552                       # average ReadCleanReq mshr miss latency
system.l2.ReadSharedReq_hits::.cpu.data          3730                       # number of ReadSharedReq hits
system.l2.ReadSharedReq_hits::total              3730                       # number of ReadSharedReq hits
system.l2.ReadSharedReq_misses::.cpu.data          272                       # number of ReadSharedReq misses
system.l2.ReadSharedReq_misses::total             272                       # number of ReadSharedReq misses
system.l2.ReadSharedReq_miss_latency::.cpu.data     28189000                       # number of ReadSharedReq miss cycles
system.l2.ReadSharedReq_miss_latency::total     28189000                       # number of ReadSharedReq miss cycles
system.l2.ReadSharedReq_accesses::.cpu.data         4002                       # number of ReadSharedReq accesses(hits+misses)
system.l2.ReadSharedReq_accesses::total          4002                       # number of ReadSharedReq accesses(hits+misses)
system.l2.ReadSharedReq_miss_rate::.cpu.data     0.067966                       # miss rate for ReadSharedReq accesses
system.l2.ReadSharedReq_miss_rate::total     0.067966                       # miss rate for ReadSharedReq accesses
system.l2.ReadSharedReq_avg_miss_latency::.cpu.data 103636.029412                       # average ReadSharedReq miss latency
system.l2.ReadSharedReq_avg_miss_latency::total 103636.029412                       # average ReadSharedReq miss latency
system.l2.ReadSharedReq_mshr_hits::.cpu.data            4                       # number of ReadSharedReq MSHR hits
system.l2.ReadSharedReq_mshr_hits::total            4                       # number of ReadSharedReq MSHR hits
system.l2.ReadSharedReq_mshr_misses::.cpu.data          268                       # number of ReadSharedReq MSHR misses
system.l2.ReadSharedReq_mshr_misses::total          268                       # number of ReadSharedReq MSHR misses
system.l2.ReadSharedReq_mshr_miss_latency::.cpu.data     22496000                       # number of ReadSharedReq MSHR miss cycles
system.l2.ReadSharedReq_mshr_miss_latency::total     22496000                       # number of ReadSharedReq MSHR miss cycles
system.l2.ReadSharedReq_mshr_miss_rate::.cpu.data     0.066967                       # mshr miss rate for ReadSharedReq accesses
system.l2.ReadSharedReq_mshr_miss_rate::total     0.066967                       # mshr miss rate for ReadSharedReq accesses
system.l2.ReadSharedReq_avg_mshr_miss_latency::.cpu.data 83940.298507                       # average ReadSharedReq mshr miss latency
system.l2.ReadSharedReq_avg_mshr_miss_latency::total 83940.298507                       # average ReadSharedReq mshr miss latency
system.l2.tags.pwrStateResidencyTicks::UNDEFINED 704192721000                       # Cumulative time (in ticks) in various power states
system.l2.tags.tagsinuse                 16243.883110                       # Cycle average of tags in use
system.l2.tags.total_refs                    10540585                       # Total number of references to valid blocks.
system.l2.tags.sampled_refs                   5263873                       # Sample count of references to valid blocks.
system.l2.tags.avg_refs                      2.002439                       # Average number of references to valid blocks.
system.l2.tags.warmup_cycle                     87000                       # Cycle when the warmup percentage was hit.
system.l2.tags.occ_blocks::.writebacks       0.074493                       # Average occupied blocks per requestor
system.l2.tags.occ_blocks::.cpu.inst         4.187586                       # Average occupied blocks per requestor
system.l2.tags.occ_blocks::.cpu.data     16239.621031                       # Average occupied blocks per requestor
system.l2.tags.occ_percent::.writebacks      0.000005                       # Average percentage of cache occupancy
system.l2.tags.occ_percent::.cpu.inst        0.000256                       # Average percentage of cache occupancy
system.l2.tags.occ_percent::.cpu.data        0.991188                       # Average percentage of cache occupancy
system.l2.tags.occ_percent::total            0.991448                       # Average percentage of cache occupancy
system.l2.tags.occ_task_id_blocks::1024         16384                       # Occupied blocks per task id
system.l2.tags.age_task_id_blocks_1024::0           76                       # Occupied blocks per task id
system.l2.tags.age_task_id_blocks_1024::1          678                       # Occupied blocks per task id
system.l2.tags.age_task_id_blocks_1024::2         6781                       # Occupied blocks per task id
system.l2.tags.age_task_id_blocks_1024::3         8849                       # Occupied blocks per task id
system.l2.tags.occ_task_id_percent::1024            1                       # Percentage of cache occupancy per task id
system.l2.tags.tag_accesses                  26345051                       # Number of tag accesses
system.l2.tags.data_accesses                 26345051                       # Number of data accesses
system.cpu_voltage_domain.voltage                   1                       # Voltage in Volts
system.mem_ctrls.pwrStateResidencyTicks::UNDEFINED 704192721000                       # Cumulative time (in ticks) in various power states
system.mem_ctrls.bytes_read::.cpu.inst          37120                       # Number of bytes read from this memory
system.mem_ctrls.bytes_read::.cpu.data      336848512                       # Number of bytes read from this memory
system.mem_ctrls.bytes_read::total          336885632                       # Number of bytes read from this memory
system.mem_ctrls.bytes_inst_read::.cpu.inst        37120                       # Number of instructions bytes read from this memory
system.mem_ctrls.bytes_inst_read::total         37120                       # Number of instructions bytes read from this memory
system.mem_ctrls.bytes_written::.writebacks    335784768                       # Number of bytes written to this memory
system.mem_ctrls.bytes_written::total       335784768                       # Number of bytes written to this memory
system.mem_ctrls.num_reads::.cpu.inst             580                       # Number of read requests responded to by this memory
system.mem_ctrls.num_reads::.cpu.data         5263258                       # Number of read requests responded to by this memory
system.mem_ctrls.num_reads::total             5263838                       # Number of read requests responded to by this memory
system.mem_ctrls.num_writes::.writebacks      5246637                       # Number of write requests responded to by this memory
system.mem_ctrls.num_writes::total            5246637                       # Number of write requests responded to by this memory
system.mem_ctrls.bw_read::.cpu.inst             52713                       # Total read bandwidth from this memory (bytes/s)
system.mem_ctrls.bw_read::.cpu.data         478347052                       # Total read bandwidth from this memory (bytes/s)
system.mem_ctrls.bw_read::total             478399765                       # Total read bandwidth from this memory (bytes/s)
system.mem_ctrls.bw_inst_read::.cpu.inst        52713                       # Instruction read bandwidth from this memory (bytes/s)
system.mem_ctrls.bw_inst_read::total            52713                       # Instruction read bandwidth from this memory (bytes/s)
system.mem_ctrls.bw_write::.writebacks      476836465                       # Write bandwidth from this memory (bytes/s)
system.mem_ctrls.bw_write::total            476836465                       # Write bandwidth from this memory (bytes/s)
system.mem_ctrls.bw_total::.writebacks      476836465                       # Total bandwidth to/from this memory (bytes/s)
system.mem_ctrls.bw_total::.cpu.inst            52713                       # Total bandwidth to/from this memory (bytes/s)
system.mem_ctrls.bw_total::.cpu.data        478347052                       # Total bandwidth to/from this memory (bytes/s)
system.mem_ctrls.bw_total::total            955236230                       # Total bandwidth to/from this memory (bytes/s)
system.mem_ctrls.avgPriority_.writebacks::samples   5246637.00                       # Average QoS priority value for accepted requests
system.mem_ctrls.avgPriority_.cpu.inst::samples       580.00                       # Average QoS priority value for accepted requests
system.mem_ctrls.avgPriority_.cpu.data::samples   5263258.00                       # Average QoS priority value for accepted requests
system.mem_ctrls.priorityMinLatency      0.000000018750                       # per QoS priority minimum request to response latency (s)
system.mem_ctrls.priorityMaxLatency      0.001668410750                       # per QoS priority maximum request to response latency (s)
system.mem_ctrls.numReadWriteTurnArounds       327907                       # Number of turnarounds from READ to WRITE
system.mem_ctrls.numWriteReadTurnArounds       327907                       # Number of turnarounds from WRITE to READ
system.mem_ctrls.numStayReadState            15627169                       # Number of times bus staying in READ state
system.mem_ctrls.numStayWriteState            4918777                       # Number of times bus staying in WRITE state
system.mem_ctrls.readReqs                     5263838                       # Number of read requests accepted
system.mem_ctrls.writeReqs                    5246637                       # Number of write requests accepted
system.mem_ctrls.readBursts                   5263838                       # Number of DRAM read bursts, including those serviced by the write queue
system.mem_ctrls.writeBursts                  5246637                       # Number of DRAM write bursts, including those merged in the write queue
system.mem_ctrls.servicedByWrQ                      0                       # Number of DRAM read bursts serviced by the write queue
system.mem_ctrls.mergedWrBursts                     0                       # Number of DRAM write bursts merged with an existing one
system.mem_ctrls.neitherReadNorWriteReqs            0                       # Number of requests that are neither read nor write
system.mem_ctrls.perBankRdBursts::0            329172                       # Per bank write bursts
system.mem_ctrls.perBankRdBursts::1            329086                       # Per bank write bursts
system.mem_ctrls.perBankRdBursts::2            329070                       # Per bank write bursts
system.mem_ctrls.perBankRdBursts::3            329044                       # Per bank write bursts
system.mem_ctrls.perBankRdBursts::4            329101                       # Per bank write bursts
system.mem_ctrls.perBankRdBursts::5            328944                       # Per bank write bursts
system.mem_ctrls.perBankRdBursts::6            328902                       # Per bank write bursts
system.mem_ctrls.perBankRdBursts::7            328870                       # Per bank write bursts
system.mem_ctrls.perBankRdBursts::8            328799                       # Per bank write bursts
system.mem_ctrls.perBankRdBursts::9            329039                       # Per bank write bursts
system.mem_ctrls.perBankRdBursts::10           329027                       # Per bank write bursts
system.mem_ctrls.perBankRdBursts::11           328959                       # Per bank write bursts
system.mem_ctrls.perBankRdBursts::12           328901                       # Per bank write bursts
system.mem_ctrls.perBankRdBursts::13           328864                       # Per bank write bursts
system.mem_ctrls.perBankRdBursts::14           328976                       # Per bank write bursts
system.mem_ctrls.perBankRdBursts::15           329084                       # Per bank write bursts
system.mem_ctrls.perBankWrBursts::0            328044                       # Per bank write bursts
system.mem_ctrls.perBankWrBursts::1            328005                       # Per bank write bursts
system.mem_ctrls.perBankWrBursts::2            327986                       # Per bank write bursts
system.mem_ctrls.perBankWrBursts::3            327988                       # Per bank write bursts
system.mem_ctrls.perBankWrBursts::4            327999                       # Per bank write bursts
system.mem_ctrls.perBankWrBursts::5            327891                       # Per bank write bursts
system.mem_ctrls.perBankWrBursts::6            327808                       # Per bank write bursts
system.mem_ctrls.perBankWrBursts::7            327808                       # Per bank write bursts
system.mem_ctrls.perBankWrBursts::8            327738                       # Per bank write bursts
system.mem_ctrls.perBankWrBursts::9            327942                       # Per bank write bursts
system.mem_ctrls.perBankWrBursts::10           327945                       # Per bank write bursts
system.mem_ctrls.perBankWrBursts::11           327926                       # Per bank write bursts
system.mem_ctrls.perBankWrBursts::12           327863                       # Per bank write bursts
system.mem_ctrls.perBankWrBursts::13           327816                       # Per bank write bursts
system.mem_ctrls.perBankWrBursts::14           327870                       # Per bank write bursts
system.mem_ctrls.perBankWrBursts::15           327980                       # Per bank write bursts
system.mem_ctrls.avgRdQLen                       1.00                       # Average read queue length when enqueuing
system.mem_ctrls.avgWrQLen                      25.54                       # Average write queue length when enqueuing
system.mem_ctrls.totQLat                  51074292000                       # Total ticks spent queuing
system.mem_ctrls.totBusLat                26319190000                       # Total ticks spent in databus transfers
system.mem_ctrls.totMemAccLat            149771254500                       # Total ticks spent from burst creation until serviced by the DRAM
system.mem_ctrls.avgQLat                      9702.86                       # Average queueing delay per DRAM burst
system.mem_ctrls.avgBusLat                    5000.00                       # Average bus latency per DRAM burst
system.mem_ctrls.avgMemAccLat                28452.86                       # Average memory access latency per DRAM burst
system.mem_ctrls.numRdRetry                         0                       # Number of times read queue was full causing retry
system.mem_ctrls.numWrRetry                         0                       # Number of times write queue was full causing retry
system.mem_ctrls.readRowHits                  4812368                       # Number of row buffer hits during reads
system.mem_ctrls.writeRowHits                 4884659                       # Number of row buffer hits during writes
system.mem_ctrls.readRowHitRate                 91.42                       # Row buffer hit rate for reads
system.mem_ctrls.writeRowHitRate                93.10                       # Row buffer hit rate for writes
system.mem_ctrls.readPktSize::0                     0                       # Read request sizes (log2)
system.mem_ctrls.readPktSize::1                     0                       # Read request sizes (log2)
system.mem_ctrls.readPktSize::2                     0                       # Read request sizes (log2)
system.mem_ctrls.readPktSize::3                     0                       # Read request sizes (log2)
system.mem_ctrls.readPktSize::4                     0                       # Read request sizes (log2)
system.mem_ctrls.readPktSize::5                     0                       # Read request sizes (log2)
system.mem_ctrls.readPktSize::6               5263838                       # Read request sizes (log2)
system.mem_ctrls.writePktSize::0                    0                       # Write request sizes (log2)
system.mem_ctrls.writePktSize::1                    0                       # Write request sizes (log2)
system.mem_ctrls.writePktSize::2                    0                       # Write request sizes (log2)
system.mem_ctrls.writePktSize::3                    0                       # Write request sizes (log2)
system.mem_ctrls.writePktSize::4                    0                       # Write request sizes (log2)
system.mem_ctrls.writePktSize::5                    0                       # Write request sizes (log2)
system.mem_ctrls.writePktSize::6              5246637                       # Write request sizes (log2)
system.mem_ctrls.rdQLenPdf::0                 5263590                       # What read queue length does an incoming req see
system.mem_ctrls.rdQLenPdf::1                     228                       # What read queue length does an incoming req see
system.mem_ctrls.rdQLenPdf::2                      20                       # What read queue length does an incoming req see
system.mem_ctrls.rdQLenPdf::3                       0                       # What read queue length does an incoming req see
system.mem_ctrls.rdQLenPdf::4                       0                       # What read queue length does an incoming req see
system.mem_ctrls.rdQLenPdf::5                       0                       # What read queue length does an incoming req see
system.mem_ctrls.rdQLenPdf::6                       0                       # What read queue length does an incoming req see
system.mem_ctrls.rdQLenPdf::7                       0                       # What read queue length does an incoming req see
system.mem_ctrls.rdQLenPdf::8                       0                       # What read queue length does an incoming req see
system.mem_ctrls.rdQLenPdf::9                       0                       # What read queue length does an incoming req see
system.mem_ctrls.rdQLenPdf::10                      0                       # What read queue length does an incoming req see
system.mem_ctrls.rdQLenPdf::11                      0                       # What read queue length does an incoming req see
system.mem_ctrls.rdQLenPdf::12                      0                       # What read queue length does an incoming req see
system.mem_ctrls.rdQLenPdf::13                      0                       # What read queue length does an incoming req see
system.mem_ctrls.rdQLenPdf::14                      0                       # What read queue length does an incoming req see
system.mem_ctrls.rdQLenPdf::15                      0                       # What read queue length does an incoming req see
system.mem_ctrls.rdQLenPdf::16                      0                       # What read queue length does an incoming req see
system.mem_ctrls.rdQLenPdf::17                      0                       # What read queue length does an incoming req see
system.mem_ctrls.rdQLenPdf::18                      0                       # What read queue length does an incoming req see
system.mem_ctrls.rdQLenPdf::19                      0                       # What read queue length does an incoming req see
system.mem_ctrls.rdQLenPdf::20                      0                       # What read queue length does an incoming req see
system.mem_ctrls.rdQLenPdf::21                      0                       # What read queue length does an incoming req see
system.mem_ctrls.rdQLenPdf::22                      0                       # What read queue length does an incoming req see
system.mem_ctrls.rdQLenPdf::23                      0                       # What read queue length does an incoming req see
system.mem_ctrls.rdQLenPdf::24                      0                       # What read queue length does an incoming req see
system.mem_ctrls.rdQLenPdf::25                      0                       # What read queue length does an incoming req see
system.mem_ctrls.rdQLenPdf::26                      0                       # What read queue length does an incoming req see
system.mem_ctrls.rdQLenPdf::27                      0                       # What read queue length does an incoming req see
system.mem_ctrls.rdQLenPdf::28                      0                       # What read queue length does an incoming req see
system.mem_ctrls.rdQLenPdf::29                      0                       # What read queue length does an incoming req see
system.mem_ctrls.rdQLenPdf::30                      0                       # What read queue length does an incoming req see
system.mem_ctrls.rdQLenPdf::31                      0                       # What read queue length does an incoming req see
system.mem_ctrls.wrQLenPdf::0                       1                       # What write queue length does an incoming req see
system.mem_ctrls.wrQLenPdf::1                       1                       # What write queue length does an incoming req see
system.mem_ctrls.wrQLenPdf::2                       1                       # What write queue length does an incoming req see
system.mem_ctrls.wrQLenPdf::3                       1                       # What write queue length does an incoming req see
system.mem_ctrls.wrQLenPdf::4                       1                       # What write queue length does an incoming req see
system.mem_ctrls.wrQLenPdf::5                       1                       # What write queue length does an incoming req see
system.mem_ctrls.wrQLenPdf::6                       1                       # What write queue length does an incoming req see
system.mem_ctrls.wrQLenPdf::7                       1                       # What write queue length does an incoming req see
system.mem_ctrls.wrQLenPdf::8                       1                       # What write queue length does an incoming req see
system.mem_ctrls.wrQLenPdf::9                       1                       # What write queue length does an incoming req see
system.mem_ctrls.wrQLenPdf::10                      1                       # What write queue length does an incoming req see
system.mem_ctrls.wrQLenPdf::11                      1                       # What write queue length does an incoming req see
system.mem_ctrls.wrQLenPdf::12                      1                       # What write queue length does an incoming req see
system.mem_ctrls.wrQLenPdf::13                      1                       # What write queue length does an incoming req see
system.mem_ctrls.wrQLenPdf::14                      1                       # What write queue length does an incoming req see
system.mem_ctrls.wrQLenPdf::15                     22                       # What write queue length does an incoming req see
system.mem_ctrls.wrQLenPdf::16                     46                       # What write queue length does an incoming req see
system.mem_ctrls.wrQLenPdf::17                 327905                       # What write queue length does an incoming req see
system.mem_ctrls.wrQLenPdf::18                 327909                       # What write queue length does an incoming req see
system.mem_ctrls.wrQLenPdf::19                 327909                       # What write queue length does an incoming req see
system.mem_ctrls.wrQLenPdf::20                 327910                       # What write queue length does an incoming req see
system.mem_ctrls.wrQLenPdf::21                 327908                       # What write queue length does an incoming req see
system.mem_ctrls.wrQLenPdf::22                 327909                       # What write queue length does an incoming req see
system.mem_ctrls.wrQLenPdf::23                 327932                       # What write queue length does an incoming req see
system.mem_ctrls.wrQLenPdf::24                 327908                       # What write queue length does an incoming req see
system.mem_ctrls.wrQLenPdf::25                 327909                       # What write queue length does an incoming req see
system.mem_ctrls.wrQLenPdf::26                 327909                       # What write queue length does an incoming req see
system.mem_ctrls.wrQLenPdf::27                 327908                       # What write queue length does an incoming req see
system.mem_ctrls.wrQLenPdf::28                 327907                       # What write queue length does an incoming req see
system.mem_ctrls.wrQLenPdf::29                 327910                       # What write queue length does an incoming req see
system.mem_ctrls.wrQLenPdf::30                 327907                       # What write queue length does an incoming req see
system.mem_ctrls.wrQLenPdf::31                 327907                       # What write queue length does an incoming req see
system.mem_ctrls.wrQLenPdf::32                 327907                       # What write queue length does an incoming req see
system.mem_ctrls.wrQLenPdf::33                      0                       # What write queue length does an incoming req see
system.mem_ctrls.wrQLenPdf::34                      0                       # What write queue length does an incoming req see
system.mem_ctrls.wrQLenPdf::35                      0                       # What write queue length does an incoming req see
system.mem_ctrls.wrQLenPdf::36                      0                       # What write queue length does an incoming req see
system.mem_ctrls.wrQLenPdf::37                      0                       # What write queue length does an incoming req see
system.mem_ctrls.wrQLenPdf::38                      0                       # What write queue length does an incoming req see
system.mem_ctrls.wrQLenPdf::39                      0                       # What write queue length does an incoming req see
system.mem_ctrls.wrQLenPdf::40                      0                       # What write queue length does an incoming req see
system.mem_ctrls.wrQLenPdf::41                      0                       # What write queue length does an incoming req see
system.mem_ctrls.wrQLenPdf::42                      0                       # What write queue length does an incoming req see
system.mem_ctrls.wrQLenPdf::43                      0                       # What write queue length does an incoming req see
system.mem_ctrls.wrQLenPdf::44                      0                       # What write queue length does an incoming req see
system.mem_ctrls.wrQLenPdf::45                      0                       # What write queue length does an incoming req see
system.mem_ctrls.wrQLenPdf::46                      0                       # What write queue length does an incoming req see
system.mem_ctrls.wrQLenPdf::47                      0                       # What write queue length does an incoming req see
system.mem_ctrls.wrQLenPdf::48                      0                       # What write queue length does an incoming req see
system.mem_ctrls.wrQLenPdf::49                      0                       # What write queue length does an incoming req see
system.mem_ctrls.wrQLenPdf::50                      0                       # What write queue length does an incoming req see
system.mem_ctrls.wrQLenPdf::51                      0                       # What write queue length does an incoming req see
system.mem_ctrls.wrQLenPdf::52                      0                       # What write queue length does an incoming req see
system.mem_ctrls.wrQLenPdf::53                      0                       # What write queue length does an incoming req see
system.mem_ctrls.wrQLenPdf::54                      0                       # What write queue length does an incoming req see
system.mem_ctrls.wrQLenPdf::55                      0                       # What write queue length does an incoming req see
system.mem_ctrls.wrQLenPdf::56                      0                       # What write queue length does an incoming req see
system.mem_ctrls.wrQLenPdf::57                      0                       # What write queue length does an incoming req see
system.mem_ctrls.wrQLenPdf::58                      0                       # What write queue length does an incoming req see
system.mem_ctrls.wrQLenPdf::59                      0                       # What write queue length does an incoming req see
system.mem_ctrls.wrQLenPdf::60                      0                       # What write queue length does an incoming req see
system.mem_ctrls.wrQLenPdf::61                      0                       # What write queue length does an incoming req see
system.mem_ctrls.wrQLenPdf::62                      0                       # What write queue length does an incoming req see
system.mem_ctrls.wrQLenPdf::63                      0                       # What write queue length does an incoming req see
system.mem_ctrls.bytesPerActivate::samples       813418                       # Bytes accessed per row activation
system.mem_ctrls.bytesPerActivate::mean    826.964380                       # Bytes accessed per row activation
system.mem_ctrls.bytesPerActivate::gmean   701.970004                       # Bytes accessed per row activation
system.mem_ctrls.bytesPerActivate::stdev   315.997614                       # Bytes accessed per row activation
system.mem_ctrls.bytesPerActivate::0-127        33729      4.15%      4.15% # Bytes accessed per row activation
system.mem_ctrls.bytesPerActivate::128-255        40181      4.94%      9.09% # Bytes accessed per row activation
system.mem_ctrls.bytesPerActivate::256-383        43077      5.30%     14.38% # Bytes accessed per row activation
system.mem_ctrls.bytesPerActivate::384-511        40602      4.99%     19.37% # Bytes accessed per row activation
system.mem_ctrls.bytesPerActivate::512-639        13115      1.61%     20.99% # Bytes accessed per row activation
system.mem_ctrls.bytesPerActivate::640-767        38628      4.75%     25.73% # Bytes accessed per row activation
system.mem_ctrls.bytesPerActivate::768-895        46153      5.67%     31.41% # Bytes accessed per row activation
system.mem_ctrls.bytesPerActivate::896-1023        49999      6.15%     37.56% # Bytes accessed per row activation
system.mem_ctrls.bytesPerActivate::1024-1151       507934     62.44%    100.00% # Bytes accessed per row activation
system.mem_ctrls.bytesPerActivate::total       813418                       # Bytes accessed per row activation
system.mem_ctrls.rdPerTurnAround::samples       327907                       # Reads before turning the bus around for writes
system.mem_ctrls.rdPerTurnAround::mean      16.052805                       # Reads before turning the bus around for writes
system.mem_ctrls.rdPerTurnAround::gmean     16.004448                       # Reads before turning the bus around for writes
system.mem_ctrls.rdPerTurnAround::stdev     15.670709                       # Reads before turning the bus around for writes
system.mem_ctrls.rdPerTurnAround::0-255        327901    100.00%    100.00% # Reads before turning the bus around for writes
system.mem_ctrls.rdPerTurnAround::256-511            2      0.00%    100.00% # Reads before turning the bus around for writes
system.mem_ctrls.rdPerTurnAround::1024-1279            1      0.00%    100.00% # Reads before turning the bus around for writes
system.mem_ctrls.rdPerTurnAround::1536-1791            1      0.00%    100.00% # Reads before turning the bus around for writes
system.mem_ctrls.rdPerTurnAround::3840-4095            1      0.00%    100.00% # Reads before turning the bus around for writes
system.mem_ctrls.rdPerTurnAround::7680-7935            1      0.00%    100.00% # Reads before turning the bus around for writes
system.mem_ctrls.rdPerTurnAround::total        327907                       # Reads before turning the bus around for writes
system.mem_ctrls.wrPerTurnAround::samples       327907                       # Writes before turning the bus around for reads
system.mem_ctrls.wrPerTurnAround::mean      16.000296                       # Writes before turning the bus around for reads
system.mem_ctrls.wrPerTurnAround::gmean     16.000277                       # Writes before turning the bus around for reads
[...]
system.cpu.icache.tags.warmup_cycle            108000                       # Cycle when the warmup percentage was hit.
system.cpu.icache.tags.occ_blocks::.cpu.inst   424.511931                       # Average occupied blocks per requestor
system.cpu.icache.tags.occ_percent::.cpu.inst     0.414562                       # Average percentage of cache occupancy
system.cpu.icache.tags.occ_percent::total     0.414562                       # Average percentage of cache occupancy
system.cpu.icache.tags.occ_task_id_blocks::1024          510                       # Occupied blocks per task id
system.cpu.icache.tags.age_task_id_blocks_1024::4          510                       # Occupied blocks per task id
system.cpu.icache.tags.occ_task_id_percent::1024     0.498047                       # Percentage of cache occupancy per task id
system.cpu.icache.tags.tag_accesses          31871761                       # Number of tag accesses
system.cpu.icache.tags.data_accesses         31871761                       # Number of data accesses
system.cpu.dtb.walker.pwrStateResidencyTicks::UNDEFINED 704192721000                       # Cumulative time (in ticks) in various power states
system.cpu.dtb.stage2_mmu.stage2_tlb.walker.pwrStateResidencyTicks::UNDEFINED 704192721000                       # Cumulative time (in ticks) in various power states
system.cpu.dcache.pwrStateResidencyTicks::UNDEFINED 704192721000                       # Cumulative time (in ticks) in various power states
system.cpu.dcache.demand_hits::.cpu.data     75851026                       # number of demand (read+write) hits
system.cpu.dcache.demand_hits::total         75851026                       # number of demand (read+write) hits
system.cpu.dcache.overall_hits::.cpu.data     75851059                       # number of overall hits
system.cpu.dcache.overall_hits::total        75851059                       # number of overall hits
system.cpu.dcache.demand_misses::.cpu.data     10531021                       # number of demand (read+write) misses
system.cpu.dcache.demand_misses::total       10531021                       # number of demand (read+write) misses
system.cpu.dcache.overall_misses::.cpu.data     10531060                       # number of overall misses
system.cpu.dcache.overall_misses::total      10531060                       # number of overall misses
system.cpu.dcache.demand_miss_latency::.cpu.data 1107435050999                       # number of demand (read+write) miss cycles
system.cpu.dcache.demand_miss_latency::total 1107435050999                       # number of demand (read+write) miss cycles
system.cpu.dcache.overall_miss_latency::.cpu.data 1107435050999                       # number of overall miss cycles
system.cpu.dcache.overall_miss_latency::total 1107435050999                       # number of overall miss cycles
system.cpu.dcache.demand_accesses::.cpu.data     86382047                       # number of demand (read+write) accesses
system.cpu.dcache.demand_accesses::total     86382047                       # number of demand (read+write) accesses
system.cpu.dcache.overall_accesses::.cpu.data     86382119                       # number of overall (read+write) accesses
system.cpu.dcache.overall_accesses::total     86382119                       # number of overall (read+write) accesses
system.cpu.dcache.demand_miss_rate::.cpu.data     0.121912                       # miss rate for demand accesses
system.cpu.dcache.demand_miss_rate::total     0.121912                       # miss rate for demand accesses
system.cpu.dcache.overall_miss_rate::.cpu.data     0.121912                       # miss rate for overall accesses
system.cpu.dcache.overall_miss_rate::total     0.121912                       # miss rate for overall accesses
system.cpu.dcache.demand_avg_miss_latency::.cpu.data 105159.324153                       # average overall miss latency
system.cpu.dcache.demand_avg_miss_latency::total 105159.324153                       # average overall miss latency
system.cpu.dcache.overall_avg_miss_latency::.cpu.data 105158.934713                       # average overall miss latency
system.cpu.dcache.overall_avg_miss_latency::total 105158.934713                       # average overall miss latency
system.cpu.dcache.blocked_cycles::no_mshrs          121                       # number of cycles access was blocked
system.cpu.dcache.blocked_cycles::no_targets            0                       # number of cycles access was blocked
system.cpu.dcache.blocked::no_mshrs                 3                       # number of cycles access was blocked
system.cpu.dcache.blocked::no_targets               0                       # number of cycles access was blocked
system.cpu.dcache.avg_blocked_cycles::no_mshrs    40.333333                       # average number of cycles each access was blocked
system.cpu.dcache.avg_blocked_cycles::no_targets          nan                       # average number of cycles each access was blocked
system.cpu.dcache.writebacks::.writebacks      5266500                       # number of writebacks
system.cpu.dcache.writebacks::total           5266500                       # number of writebacks
system.cpu.dcache.demand_mshr_hits::.cpu.data      5260635                       # number of demand (read+write) MSHR hits
system.cpu.dcache.demand_mshr_hits::total      5260635                       # number of demand (read+write) MSHR hits
system.cpu.dcache.overall_mshr_hits::.cpu.data      5260635                       # number of overall MSHR hits
system.cpu.dcache.overall_mshr_hits::total      5260635                       # number of overall MSHR hits
system.cpu.dcache.demand_mshr_misses::.cpu.data      5270386                       # number of demand (read+write) MSHR misses
system.cpu.dcache.demand_mshr_misses::total      5270386                       # number of demand (read+write) MSHR misses
system.cpu.dcache.overall_mshr_misses::.cpu.data      5270419                       # number of overall MSHR misses
system.cpu.dcache.overall_mshr_misses::total      5270419                       # number of overall MSHR misses
system.cpu.dcache.demand_mshr_miss_latency::.cpu.data 540801145000                       # number of demand (read+write) MSHR miss cycles
system.cpu.dcache.demand_mshr_miss_latency::total 540801145000                       # number of demand (read+write) MSHR miss cycles
system.cpu.dcache.overall_mshr_miss_latency::.cpu.data 540804737000                       # number of overall MSHR miss cycles
system.cpu.dcache.overall_mshr_miss_latency::total 540804737000                       # number of overall MSHR miss cycles
system.cpu.dcache.demand_mshr_miss_rate::.cpu.data     0.061013                       # mshr miss rate for demand accesses
system.cpu.dcache.demand_mshr_miss_rate::total     0.061013                       # mshr miss rate for demand accesses
system.cpu.dcache.overall_mshr_miss_rate::.cpu.data     0.061013                       # mshr miss rate for overall accesses
system.cpu.dcache.overall_mshr_miss_rate::total     0.061013                       # mshr miss rate for overall accesses
system.cpu.dcache.demand_avg_mshr_miss_latency::.cpu.data 102611.297351                       # average overall mshr miss latency
system.cpu.dcache.demand_avg_mshr_miss_latency::total 102611.297351                       # average overall mshr miss latency
system.cpu.dcache.overall_avg_mshr_miss_latency::.cpu.data 102611.336404                       # average overall mshr miss latency
system.cpu.dcache.overall_avg_mshr_miss_latency::total 102611.336404                       # average overall mshr miss latency
system.cpu.dcache.replacements                5269908                       # number of replacements
system.cpu.dcache.ReadReq_hits::.cpu.data      2039774                       # number of ReadReq hits
system.cpu.dcache.ReadReq_hits::total         2039774                       # number of ReadReq hits
system.cpu.dcache.ReadReq_misses::.cpu.data         4007                       # number of ReadReq misses
system.cpu.dcache.ReadReq_misses::total          4007                       # number of ReadReq misses
system.cpu.dcache.ReadReq_miss_latency::.cpu.data    133598000                       # number of ReadReq miss cycles
system.cpu.dcache.ReadReq_miss_latency::total    133598000                       # number of ReadReq miss cycles
system.cpu.dcache.ReadReq_accesses::.cpu.data      2043781                       # number of ReadReq accesses(hits+misses)
system.cpu.dcache.ReadReq_accesses::total      2043781                       # number of ReadReq accesses(hits+misses)
system.cpu.dcache.ReadReq_miss_rate::.cpu.data     0.001961                       # miss rate for ReadReq accesses
system.cpu.dcache.ReadReq_miss_rate::total     0.001961                       # miss rate for ReadReq accesses
system.cpu.dcache.ReadReq_avg_miss_latency::.cpu.data 33341.152982                       # average ReadReq miss latency
system.cpu.dcache.ReadReq_avg_miss_latency::total 33341.152982                       # average ReadReq miss latency
system.cpu.dcache.ReadReq_mshr_hits::.cpu.data           39                       # number of ReadReq MSHR hits
system.cpu.dcache.ReadReq_mshr_hits::total           39                       # number of ReadReq MSHR hits
system.cpu.dcache.ReadReq_mshr_misses::.cpu.data         3968                       # number of ReadReq MSHR misses
system.cpu.dcache.ReadReq_mshr_misses::total         3968                       # number of ReadReq MSHR misses
system.cpu.dcache.ReadReq_mshr_miss_latency::.cpu.data    122659000                       # number of ReadReq MSHR miss cycles
system.cpu.dcache.ReadReq_mshr_miss_latency::total    122659000                       # number of ReadReq MSHR miss cycles
system.cpu.dcache.ReadReq_mshr_miss_rate::.cpu.data     0.001941                       # mshr miss rate for ReadReq accesses
system.cpu.dcache.ReadReq_mshr_miss_rate::total     0.001941                       # mshr miss rate for ReadReq accesses
system.cpu.dcache.ReadReq_avg_mshr_miss_latency::.cpu.data 30912.046371                       # average ReadReq mshr miss latency
system.cpu.dcache.ReadReq_avg_mshr_miss_latency::total 30912.046371                       # average ReadReq mshr miss latency
system.cpu.dcache.WriteReq_hits::.cpu.data     73811252                       # number of WriteReq hits
system.cpu.dcache.WriteReq_hits::total       73811252                       # number of WriteReq hits
system.cpu.dcache.WriteReq_misses::.cpu.data     10527014                       # number of WriteReq misses
system.cpu.dcache.WriteReq_misses::total     10527014                       # number of WriteReq misses
system.cpu.dcache.WriteReq_miss_latency::.cpu.data 1107301452999                       # number of WriteReq miss cycles
system.cpu.dcache.WriteReq_miss_latency::total 1107301452999                       # number of WriteReq miss cycles
system.cpu.dcache.WriteReq_accesses::.cpu.data     84338266                       # number of WriteReq accesses(hits+misses)
system.cpu.dcache.WriteReq_accesses::total     84338266                       # number of WriteReq accesses(hits+misses)
system.cpu.dcache.WriteReq_miss_rate::.cpu.data     0.124819                       # miss rate for WriteReq accesses
system.cpu.dcache.WriteReq_miss_rate::total     0.124819                       # miss rate for WriteReq accesses
system.cpu.dcache.WriteReq_avg_miss_latency::.cpu.data 105186.661004                       # average WriteReq miss latency
system.cpu.dcache.WriteReq_avg_miss_latency::total 105186.661004                       # average WriteReq miss latency
system.cpu.dcache.WriteReq_mshr_hits::.cpu.data      5260596                       # number of WriteReq MSHR hits
system.cpu.dcache.WriteReq_mshr_hits::total      5260596                       # number of WriteReq MSHR hits
system.cpu.dcache.WriteReq_mshr_misses::.cpu.data      5266418                       # number of WriteReq MSHR misses
system.cpu.dcache.WriteReq_mshr_misses::total      5266418                       # number of WriteReq MSHR misses
system.cpu.dcache.WriteReq_mshr_miss_latency::.cpu.data 540678486000                       # number of WriteReq MSHR miss cycles
system.cpu.dcache.WriteReq_mshr_miss_latency::total 540678486000                       # number of WriteReq MSHR miss cycles
system.cpu.dcache.WriteReq_mshr_miss_rate::.cpu.data     0.062444                       # mshr miss rate for WriteReq accesses
system.cpu.dcache.WriteReq_mshr_miss_rate::total     0.062444                       # mshr miss rate for WriteReq accesses
system.cpu.dcache.WriteReq_avg_mshr_miss_latency::.cpu.data 102665.319388                       # average WriteReq mshr miss latency
system.cpu.dcache.WriteReq_avg_mshr_miss_latency::total 102665.319388                       # average WriteReq mshr miss latency
system.cpu.dcache.SoftPFReq_hits::.cpu.data           33                       # number of SoftPFReq hits
system.cpu.dcache.SoftPFReq_hits::total            33                       # number of SoftPFReq hits
system.cpu.dcache.SoftPFReq_misses::.cpu.data           39                       # number of SoftPFReq misses
system.cpu.dcache.SoftPFReq_misses::total           39                       # number of SoftPFReq misses
system.cpu.dcache.SoftPFReq_accesses::.cpu.data           72                       # number of SoftPFReq accesses(hits+misses)
system.cpu.dcache.SoftPFReq_accesses::total           72                       # number of SoftPFReq accesses(hits+misses)
system.cpu.dcache.SoftPFReq_miss_rate::.cpu.data     0.541667                       # miss rate for SoftPFReq accesses
system.cpu.dcache.SoftPFReq_miss_rate::total     0.541667                       # miss rate for SoftPFReq accesses
system.cpu.dcache.SoftPFReq_mshr_misses::.cpu.data           33                       # number of SoftPFReq MSHR misses
system.cpu.dcache.SoftPFReq_mshr_misses::total           33                       # number of SoftPFReq MSHR misses
system.cpu.dcache.SoftPFReq_mshr_miss_latency::.cpu.data      3592000                       # number of SoftPFReq MSHR miss cycles
system.cpu.dcache.SoftPFReq_mshr_miss_latency::total      3592000                       # number of SoftPFReq MSHR miss cycles
system.cpu.dcache.SoftPFReq_mshr_miss_rate::.cpu.data     0.458333                       # mshr miss rate for SoftPFReq accesses
system.cpu.dcache.SoftPFReq_mshr_miss_rate::total     0.458333                       # mshr miss rate for SoftPFReq accesses
system.cpu.dcache.SoftPFReq_avg_mshr_miss_latency::.cpu.data 108848.484848                       # average SoftPFReq mshr miss latency
system.cpu.dcache.SoftPFReq_avg_mshr_miss_latency::total 108848.484848                       # average SoftPFReq mshr miss latency
system.cpu.dcache.LoadLockedReq_hits::.cpu.data           33                       # number of LoadLockedReq hits
system.cpu.dcache.LoadLockedReq_hits::total           33                       # number of LoadLockedReq hits
system.cpu.dcache.LoadLockedReq_misses::.cpu.data            1                       # number of LoadLockedReq misses
system.cpu.dcache.LoadLockedReq_misses::total            1                       # number of LoadLockedReq misses
system.cpu.dcache.LoadLockedReq_miss_latency::.cpu.data       123000                       # number of LoadLockedReq miss cycles
system.cpu.dcache.LoadLockedReq_miss_latency::total       123000                       # number of LoadLockedReq miss cycles
system.cpu.dcache.LoadLockedReq_accesses::.cpu.data           34                       # number of LoadLockedReq accesses(hits+misses)
system.cpu.dcache.LoadLockedReq_accesses::total           34                       # number of LoadLockedReq accesses(hits+misses)
system.cpu.dcache.LoadLockedReq_miss_rate::.cpu.data     0.029412                       # miss rate for LoadLockedReq accesses
system.cpu.dcache.LoadLockedReq_miss_rate::total     0.029412                       # miss rate for LoadLockedReq accesses
system.cpu.dcache.LoadLockedReq_avg_miss_latency::.cpu.data       123000                       # average LoadLockedReq miss latency
system.cpu.dcache.LoadLockedReq_avg_miss_latency::total       123000                       # average LoadLockedReq miss latency
system.cpu.dcache.LoadLockedReq_mshr_misses::.cpu.data            1                       # number of LoadLockedReq MSHR misses
system.cpu.dcache.LoadLockedReq_mshr_misses::total            1                       # number of LoadLockedReq MSHR misses
system.cpu.dcache.LoadLockedReq_mshr_miss_latency::.cpu.data       121000                       # number of LoadLockedReq MSHR miss cycles
system.cpu.dcache.LoadLockedReq_mshr_miss_latency::total       121000                       # number of LoadLockedReq MSHR miss cycles
system.cpu.dcache.LoadLockedReq_mshr_miss_rate::.cpu.data     0.029412                       # mshr miss rate for LoadLockedReq accesses
system.cpu.dcache.LoadLockedReq_mshr_miss_rate::total     0.029412                       # mshr miss rate for LoadLockedReq accesses
system.cpu.dcache.LoadLockedReq_avg_mshr_miss_latency::.cpu.data       121000                       # average LoadLockedReq mshr miss latency
system.cpu.dcache.LoadLockedReq_avg_mshr_miss_latency::total       121000                       # average LoadLockedReq mshr miss latency
system.cpu.dcache.StoreCondReq_hits::.cpu.data           34                       # number of StoreCondReq hits
system.cpu.dcache.StoreCondReq_hits::total           34                       # number of StoreCondReq hits
system.cpu.dcache.StoreCondReq_accesses::.cpu.data           34                       # number of StoreCondReq accesses(hits+misses)
system.cpu.dcache.StoreCondReq_accesses::total           34                       # number of StoreCondReq accesses(hits+misses)
system.cpu.dcache.tags.pwrStateResidencyTicks::UNDEFINED 704192721000                       # Cumulative time (in ticks) in various power states
system.cpu.dcache.tags.tagsinuse           511.846702                       # Cycle average of tags in use
system.cpu.dcache.tags.total_refs            81121546                       # Total number of references to valid blocks.
system.cpu.dcache.tags.sampled_refs           5270420                       # Sample count of references to valid blocks.
system.cpu.dcache.tags.avg_refs             15.391856                       # Average number of references to valid blocks.
system.cpu.dcache.tags.warmup_cycle            223000                       # Cycle when the warmup percentage was hit.
system.cpu.dcache.tags.occ_blocks::.cpu.data   511.846702                       # Average occupied blocks per requestor
system.cpu.dcache.tags.occ_percent::.cpu.data     0.999701                       # Average percentage of cache occupancy
system.cpu.dcache.tags.occ_percent::total     0.999701                       # Average percentage of cache occupancy
system.cpu.dcache.tags.occ_task_id_blocks::1024          512                       # Occupied blocks per task id
system.cpu.dcache.tags.age_task_id_blocks_1024::0           76                       # Occupied blocks per task id
system.cpu.dcache.tags.age_task_id_blocks_1024::1          436                       # Occupied blocks per task id
system.cpu.dcache.tags.occ_task_id_percent::1024            1                       # Percentage of cache occupancy per task id
system.cpu.dcache.tags.tag_accesses          91652607                       # Number of tag accesses
system.cpu.dcache.tags.data_accesses         91652607                       # Number of data accesses
system.cpu.itb.walker.pwrStateResidencyTicks::UNDEFINED 704192721000                       # Cumulative time (in ticks) in various power states
system.cpu.itb.stage2_mmu.stage2_tlb.walker.pwrStateResidencyTicks::UNDEFINED 704192721000                       # Cumulative time (in ticks) in various power states

---------- End Simulation Statistics   ----------
