
---------- Begin Simulation Statistics ----------
final_tick                               704180676000                       # Number of ticks from beginning of simulation (restored from checkpoints and never reset)
host_inst_rate                                 188595                       # Simulator instruction rate (inst/s)
host_mem_usage                                 710824                       # Number of bytes of host memory used
host_op_rate                                   347347                       # Simulator op (including micro ops) rate (op/s)
host_seconds                                   530.24                       # Real time elapsed on the host
host_tick_rate                             1328046308                       # Simulator tick rate (ticks/s)
sim_freq                                 1000000000000                       # Frequency of simulated ticks
sim_insts                                   100000001                       # Number of instructions simulated
sim_ops                                     184176409                       # Number of ops (including micro ops) simulated
sim_seconds                                  0.704181                       # Number of seconds simulated
sim_ticks                                704180676000                       # Number of ticks simulated
system.cpu.branchPred.BTBCorrect                    0                       # Number of correct BTB predictions (this stat may not work properly.
system.cpu.branchPred.BTBHitPct             99.957154                       # BTB Hit Percentage
system.cpu.branchPred.BTBHits                10561255                       # Number of BTB hits
system.cpu.branchPred.BTBLookups             10565782                       # Number of BTB lookups
system.cpu.branchPred.RASInCorrect                  5                       # Number of incorrect RAS predictions.
system.cpu.branchPred.condIncorrect              1454                       # Number of conditional branches incorrect
system.cpu.branchPred.condPredicted          10562149                       # Number of conditional branches predicted
system.cpu.branchPred.indirectHits                 29                       # Number of indirect target hits.
system.cpu.branchPred.indirectLookups             195                       # Number of indirect predictor lookups.
system.cpu.branchPred.indirectMisses              166                       # Number of indirect misses.
system.cpu.branchPred.lookups                10570368                       # Number of BP lookups
system.cpu.branchPred.usedRAS                    2701                       # Number of times the RAS was used to get a target.
system.cpu.branchPredindirectMispredicted          101                       # Number of mispredicted indirect branches.
system.cpu.committedInsts                   100000001                       # Number of instructions committed
system.cpu.committedOps                     184176409                       # Number of ops (including micro ops) committed
system.cpu.cpi                               7.041807                       # CPI: cycles per instruction
system.cpu.discardedOps                          4248                       # Number of ops (including micro ops) which were discarded before commit
system.cpu.dtb.accesses                             0                       # DTB accesses
system.cpu.dtb.align_faults                         0                       # Number of TLB faults due to alignment restrictions
system.cpu.dtb.domain_faults                        0                       # Number of TLB faults due to domain restrictions
system.cpu.dtb.flush_entries                        0                       # Number of entries that have been flushed from TLB
system.cpu.dtb.flush_tlb                            0                       # Number of times complete TLB was flushed
system.cpu.dtb.flush_tlb_asid                       0                       # Number of times TLB was flushed by ASID
system.cpu.dtb.flush_tlb_mva                        0                       # Number of times TLB was flushed by MVA
system.cpu.dtb.flush_tlb_mva_asid                   0                       # Number of times TLB was flushed by MVA & ASID
system.cpu.dtb.hits                                 0                       # DTB hits
system.cpu.dtb.inst_accesses                        0                       # ITB inst accesses
system.cpu.dtb.inst_hits                            0                       # ITB inst hits
system.cpu.dtb.inst_misses                          0                       # ITB inst misses
system.cpu.dtb.misses                               0                       # DTB misses
system.cpu.dtb.perms_faults                         0                       # Number of TLB faults due to permissions restrictions
system.cpu.dtb.prefetch_faults                      0                       # Number of TLB faults due to prefetch
system.cpu.dtb.read_accesses                        0                       # DTB read accesses
system.cpu.dtb.read_hits                            0                       # DTB read hits
system.cpu.dtb.read_misses                          0                       # DTB read misses
system.cpu.dtb.stage2_mmu.stage2_tlb.accesses            0                       # DTB accesses
system.cpu.dtb.stage2_mmu.stage2_tlb.align_faults            0                       # Number of TLB faults due to alignment restrictions
system.cpu.dtb.stage2_mmu.stage2_tlb.domain_faults            0                       # Number of TLB faults due to domain restrictions
system.cpu.dtb.stage2_mmu.stage2_tlb.flush_entries            0                       # Number of entries that have been flushed from TLB
system.cpu.dtb.stage2_mmu.stage2_tlb.flush_tlb            0                       # Number of times complete TLB was flushed
system.cpu.dtb.stage2_mmu.stage2_tlb.flush_tlb_asid            0                       # Number of times TLB was flushed by ASID
system.cpu.dtb.stage2_mmu.stage2_tlb.flush_tlb_mva            0                       # Number of times TLB was flushed by MVA
system.cpu.dtb.stage2_mmu.stage2_tlb.flush_tlb_mva_asid            0                       # Number of times TLB was flushed by MVA & ASID
system.cpu.dtb.stage2_mmu.stage2_tlb.hits            0                       # DTB hits
system.cpu.dtb.stage2_mmu.stage2_tlb.inst_accesses            0                       # ITB inst accesses
system.cpu.dtb.stage2_mmu.stage2_tlb.inst_hits            0                       # ITB inst hits
system.cpu.dtb.stage2_mmu.stage2_tlb.inst_misses            0                       # ITB inst misses
system.cpu.dtb.stage2_mmu.stage2_tlb.misses            0                       # DTB misses
system.cpu.dtb.stage2_mmu.stage2_tlb.perms_faults            0                       # Number of TLB faults due to permissions restrictions
system.cpu.dtb.stage2_mmu.stage2_tlb.prefetch_faults            0                       # Number of TLB faults due to prefetch
system.cpu.dtb.stage2_mmu.stage2_tlb.read_accesses            0                       # DTB read accesses
system.cpu.dtb.stage2_mmu.stage2_tlb.read_hits            0                       # DTB read hits
system.cpu.dtb.stage2_mmu.stage2_tlb.read_misses            0                       # DTB read misses
system.cpu.dtb.stage2_mmu.stage2_tlb.walker.walkRequestOrigin_Requested::Data            0                       # Table walker requests started/completed, data/inst
system.cpu.dtb.stage2_mmu.stage2_tlb.walker.walkRequestOrigin_Requested::Inst            0                       # Table walker requests started/completed, data/inst
system.cpu.dtb.stage2_mmu.stage2_tlb.walker.walkRequestOrigin_Requested::total            0                       # Table walker requests started/completed, data/inst
system.cpu.dtb.stage2_mmu.stage2_tlb.walker.walkRequestOrigin_Completed::Data            0                       # Table walker requests started/completed, data/inst
system.cpu.dtb.stage2_mmu.stage2_tlb.walker.walkRequestOrigin_Completed::Inst            0                       # Table walker requests started/completed, data/inst
system.cpu.dtb.stage2_mmu.stage2_tlb.walker.walkRequestOrigin_Completed::total            0                       # Table walker requests started/completed, data/inst
system.cpu.dtb.stage2_mmu.stage2_tlb.walker.walkRequestOrigin::total            0                       # Table walker requests started/completed, data/inst
system.cpu.dtb.stage2_mmu.stage2_tlb.walker.walks            0                       # Table walker walks requested
system.cpu.dtb.stage2_mmu.stage2_tlb.write_accesses            0                       # DTB write accesses
system.cpu.dtb.stage2_mmu.stage2_tlb.write_hits            0                       # DTB write hits
system.cpu.dtb.stage2_mmu.stage2_tlb.write_misses            0                       # DTB write misses
system.cpu.dtb.walker.walkRequestOrigin_Requested::Data            0                       # Table walker requests started/completed, data/inst
system.cpu.dtb.walker.walkRequestOrigin_Requested::Inst            0                       # Table walker requests started/completed, data/inst
system.cpu.dtb.walker.walkRequestOrigin_Requested::total            0                       # Table walker requests started/completed, data/inst
system.cpu.dtb.walker.walkRequestOrigin_Completed::Data            0                       # Table walker requests started/completed, data/inst
system.cpu.dtb.walker.walkRequestOrigin_Completed::Inst            0                       # Table walker requests started/completed, data/inst
system.cpu.dtb.walker.walkRequestOrigin_Completed::total            0                       # Table walker requests started/completed, data/inst
system.cpu.dtb.walker.walkRequestOrigin::total            0                       # Table walker requests started/completed, data/inst
system.cpu.dtb.walker.walks                         0                       # Table walker walks requested
system.cpu.dtb.write_accesses                       0                       # DTB write accesses
system.cpu.dtb.write_hits                           0                       # DTB write hits
system.cpu.dtb.write_misses                         0                       # DTB write misses
system.cpu.fetch2.amo_instructions                  0                       # Number of memory atomic instructions successfully decoded
system.cpu.fetch2.fp_instructions                   0                       # Number of floating point instructions successfully decoded
system.cpu.fetch2.int_instructions           44893635                       # Number of integer instructions successfully decoded
system.cpu.fetch2.load_instructions           2086096                       # Number of memory load instructions successfully decoded
system.cpu.fetch2.store_instructions           169095                       # Number of memory store instructions successfully decoded
system.cpu.fetch2.vec_instructions                  0                       # Number of SIMD instructions successfully decoded
system.cpu.idleCycles                       482971928                       # Total number of cycles that the object has spent stopped
system.cpu.ipc                               0.142009                       # IPC: instructions per cycle
system.cpu.itb.accesses                             0                       # DTB accesses
system.cpu.itb.align_faults                         0                       # Number of TLB faults due to alignment restrictions
system.cpu.itb.domain_faults                        0                       # Number of TLB faults due to domain restrictions
system.cpu.itb.flush_entries                        0                       # Number of entries that have been flushed from TLB
system.cpu.itb.flush_tlb                            0                       # Number of times complete TLB was flushed
system.cpu.itb.flush_tlb_asid                       0                       # Number of times TLB was flushed by ASID
system.cpu.itb.flush_tlb_mva                        0                       # Number of times TLB was flushed by MVA
system.cpu.itb.flush_tlb_mva_asid                   0                       # Number of times TLB was flushed by MVA & ASID
system.cpu.itb.hits                                 0                       # DTB hits
system.cpu.itb.inst_accesses                        0                       # ITB inst accesses
system.cpu.itb.inst_hits                            0                       # ITB inst hits
system.cpu.itb.inst_misses                          0                       # ITB inst misses
system.cpu.itb.misses                               0                       # DTB misses
system.cpu.itb.perms_faults                         0                       # Number of TLB faults due to permissions restrictions
system.cpu.itb.prefetch_faults                      0                       # Number of TLB faults due to prefetch
system.cpu.itb.read_accesses                        0                       # DTB read accesses
system.cpu.itb.read_hits                            0                       # DTB read hits
system.cpu.itb.read_misses                          0                       # DTB read misses
system.cpu.itb.stage2_mmu.stage2_tlb.accesses            0                       # DTB accesses
system.cpu.itb.stage2_mmu.stage2_tlb.align_faults            0                       # Number of TLB faults due to alignment restrictions
system.cpu.itb.stage2_mmu.stage2_tlb.domain_faults            0                       # Number of TLB faults due to domain restrictions
system.cpu.itb.stage2_mmu.stage2_tlb.flush_entries            0                       # Number of entries that have been flushed from TLB
system.cpu.itb.stage2_mmu.stage2_tlb.flush_tlb            0                       # Number of times complete TLB was flushed
system.cpu.itb.stage2_mmu.stage2_tlb.flush_tlb_asid            0                       # Number of times TLB was flushed by ASID
system.cpu.itb.stage2_mmu.stage2_tlb.flush_tlb_mva            0                       # Number of times TLB was flushed by MVA
system.cpu.itb.stage2_mmu.stage2_tlb.flush_tlb_mva_asid            0                       # Number of times TLB was flushed by MVA & ASID
system.cpu.itb.stage2_mmu.stage2_tlb.hits            0                       # DTB hits
system.cpu.itb.stage2_mmu.stage2_tlb.inst_accesses            0                       # ITB inst accesses
system.cpu.itb.stage2_mmu.stage2_tlb.inst_hits            0                       # ITB inst hits
system.cpu.itb.stage2_mmu.stage2_tlb.inst_misses            0                       # ITB inst misses
system.cpu.itb.stage2_mmu.stage2_tlb.misses            0                       # DTB misses
system.cpu.itb.stage2_mmu.stage2_tlb.perms_faults            0                       # Number of TLB faults due to permissions restrictions
system.cpu.itb.stage2_mmu.stage2_tlb.prefetch_faults            0                       # Number of TLB faults due to prefetch
system.cpu.itb.stage2_mmu.stage2_tlb.read_accesses            0                       # DTB read accesses
system.cpu.itb.stage2_mmu.stage2_tlb.read_hits            0                       # DTB read hits
system.cpu.itb.stage2_mmu.stage2_tlb.read_misses            0                       # DTB read misses
system.cpu.itb.stage2_mmu.stage2_tlb.walker.walkRequestOrigin_Requested::Data            0                       # Table walker requests started/completed, data/inst
system.cpu.itb.stage2_mmu.stage2_tlb.walker.walkRequestOrigin_Requested::Inst            0                       # Table walker requests started/completed, data/inst
system.cpu.itb.stage2_mmu.stage2_tlb.walker.walkRequestOrigin_Requested::total            0                       # Table walker requests started/completed, data/inst
system.cpu.itb.stage2_mmu.stage2_tlb.walker.walkRequestOrigin_Completed::Data            0                       # Table walker requests started/completed, data/inst
system.cpu.itb.stage2_mmu.stage2_tlb.walker.walkRequestOrigin_Completed::Inst            0                       # Table walker requests started/completed, data/inst
system.cpu.itb.stage2_mmu.stage2_tlb.walker.walkRequestOrigin_Completed::total            0                       # Table walker requests started/completed, data/inst
system.cpu.itb.stage2_mmu.stage2_tlb.walker.walkRequestOrigin::total            0                       # Table walker requests started/completed, data/inst
system.cpu.itb.stage2_mmu.stage2_tlb.walker.walks            0                       # Table walker walks requested
system.cpu.itb.stage2_mmu.stage2_tlb.write_accesses            0                       # DTB write accesses
system.cpu.itb.stage2_mmu.stage2_tlb.write_hits            0                       # DTB write hits
system.cpu.itb.stage2_mmu.stage2_tlb.write_misses            0                       # DTB write misses
system.cpu.itb.walker.walkRequestOrigin_Requested::Data            0                       # Table walker requests started/completed, data/inst
system.cpu.itb.walker.walkRequestOrigin_Requested::Inst            0                       # Table walker requests started/completed, data/inst
system.cpu.itb.walker.walkRequestOrigin_Requested::total            0                       # Table walker requests started/completed, data/inst
system.cpu.itb.walker.walkRequestOrigin_Completed::Data            0                       # Table walker requests started/completed, data/inst
system.cpu.itb.walker.walkRequestOrigin_Completed::Inst            0                       # Table walker requests started/completed, data/inst
system.cpu.itb.walker.walkRequestOrigin_Completed::total            0                       # Table walker requests started/completed, data/inst
system.cpu.itb.walker.walkRequestOrigin::total            0                       # Table walker requests started/completed, data/inst
system.cpu.itb.walker.walks                         0                       # Table walker walks requested
system.cpu.itb.write_accesses                       0                       # DTB write accesses
system.cpu.itb.write_hits                           0                       # DTB write hits
system.cpu.itb.write_misses                         0                       # DTB write misses
system.cpu.numCycles                        704180676                       # number of cpu cycles simulated
system.cpu.numFetchSuspends                         0                       # Number of times Execute suspended instruction fetching
system.cpu.numWorkItemsCompleted                    0                       # number of work items this cpu completed
system.cpu.numWorkItemsStarted                      0                       # number of work items this cpu started
system.cpu.op_class_0::No_OpClass                   0      0.00%      0.00% # Class of committed instruction
system.cpu.op_class_0::IntAlu                97640473     53.01%     53.01% # Class of committed instruction
system.cpu.op_class_0::IntMult                 114699      0.06%     53.08% # Class of committed instruction
system.cpu.op_class_0::IntDiv                       0      0.00%     53.08% # Class of committed instruction
system.cpu.op_class_0::FloatAdd                     0      0.00%     53.08% # Class of committed instruction
system.cpu.op_class_0::FloatCmp                     0      0.00%     53.08% # Class of committed instruction
system.cpu.op_class_0::FloatCvt                     0      0.00%     53.08% # Class of committed instruction
system.cpu.op_class_0::FloatMult                    0      0.00%     53.08% # Class of committed instruction
system.cpu.op_class_0::FloatMultAcc                 0      0.00%     53.08% # Class of committed instruction
system.cpu.op_class_0::FloatDiv                     0      0.00%     53.08% # Class of committed instruction
system.cpu.op_class_0::FloatMisc                    0      0.00%     53.08% # Class of committed instruction
system.cpu.op_class_0::FloatSqrt                    0      0.00%     53.08% # Class of committed instruction
system.cpu.op_class_0::SimdAdd                      8      0.00%     53.08% # Class of committed instruction
system.cpu.op_class_0::SimdAddAcc                   0      0.00%     53.08% # Class of committed instruction
system.cpu.op_class_0::SimdAlu                      8      0.00%     53.08% # Class of committed instruction
system.cpu.op_class_0::SimdCmp                      6      0.00%     53.08% # Class of committed instruction
system.cpu.op_class_0::SimdCvt                      0      0.00%     53.08% # Class of committed instruction
system.cpu.op_class_0::SimdMisc                     1      0.00%     53.08% # Class of committed instruction
system.cpu.op_class_0::SimdMult                     0      0.00%     53.08% # Class of committed instruction
system.cpu.op_class_0::SimdMultAcc                  0      0.00%     53.08% # Class of committed instruction
system.cpu.op_class_0::SimdShift                    0      0.00%     53.08% # Class of committed instruction
system.cpu.op_class_0::SimdShiftAcc                 0      0.00%     53.08% # Class of committed instruction
system.cpu.op_class_0::SimdDiv                      0      0.00%     53.08% # Class of committed instruction
system.cpu.op_class_0::SimdSqrt                     0      0.00%     53.08% # Class of committed instruction
system.cpu.op_class_0::SimdFloatAdd                 0      0.00%     53.08% # Class of committed instruction
system.cpu.op_class_0::SimdFloatAlu                 0      0.00%     53.08% # Class of committed instruction
system.cpu.op_class_0::SimdFloatCmp                 0      0.00%     53.08% # Class of committed instruction
system.cpu.op_class_0::SimdFloatCvt                 0      0.00%     53.08% # Class of committed instruction
system.cpu.op_class_0::SimdFloatDiv                 0      0.00%     53.08% # Class of committed instruction
system.cpu.op_class_0::SimdFloatMisc                6      0.00%     53.08% # Class of committed instruction
system.cpu.op_class_0::SimdFloatMult                0      0.00%     53.08% # Class of committed instruction
system.cpu.op_class_0::SimdFloatMultAcc             0      0.00%     53.08% # Class of committed instruction
system.cpu.op_class_0::SimdFloatSqrt                0      0.00%     53.08% # Class of committed instruction
system.cpu.op_class_0::SimdReduceAdd                0      0.00%     53.08% # Class of committed instruction
system.cpu.op_class_0::SimdReduceAlu                0      0.00%     53.08% # Class of committed instruction
system.cpu.op_class_0::SimdReduceCmp                0      0.00%     53.08% # Class of committed instruction
system.cpu.op_class_0::SimdFloatReduceAdd            0      0.00%     53.08% # Class of committed instruction
system.cpu.op_class_0::SimdFloatReduceCmp            0      0.00%     53.08% # Class of committed instruction
system.cpu.op_class_0::SimdAes                      0      0.00%     53.08% # Class of committed instruction
system.cpu.op_class_0::SimdAesMix                   0      0.00%     53.08% # Class of committed instruction
system.cpu.op_class_0::SimdSha1Hash                 0      0.00%     53.08% # Class of committed instruction
system.cpu.op_class_0::SimdSha1Hash2                0      0.00%     53.08% # Class of committed instruction
system.cpu.op_class_0::SimdSha256Hash               0      0.00%     53.08% # Class of committed instruction
system.cpu.op_class_0::SimdSha256Hash2              0      0.00%     53.08% # Class of committed instruction
system.cpu.op_class_0::SimdShaSigma2                0      0.00%     53.08% # Class of committed instruction
system.cpu.op_class_0::SimdShaSigma3                0      0.00%     53.08% # Class of committed instruction
system.cpu.op_class_0::SimdPredAlu                  0      0.00%     53.08% # Class of committed instruction
system.cpu.op_class_0::MemRead                2082588      1.13%     54.21% # Class of committed instruction
system.cpu.op_class_0::MemWrite              84338620     45.79%    100.00% # Class of committed instruction
system.cpu.op_class_0::FloatMemRead                 0      0.00%    100.00% # Class of committed instruction
system.cpu.op_class_0::FloatMemWrite                0      0.00%    100.00% # Class of committed instruction
system.cpu.op_class_0::IprAccess                    0      0.00%    100.00% # Class of committed instruction
system.cpu.op_class_0::InstPrefetch                 0      0.00%    100.00% # Class of committed instruction
system.cpu.op_class_0::total                184176409                       # Class of committed instruction
system.cpu.tickCycles                       221208748                       # Number of cycles that the object actually ticked
system.cpu.workload.numSyscalls                    19                       # Number of system calls
system.membus.snoop_filter.hit_multi_requests            0                       # Number of requests hitting in the snoop filter with multiple (>1) holders of the requested data.
system.membus.snoop_filter.hit_multi_snoops            0                       # Number of snoops hitting in the snoop filter with multiple (>1) holders of the requested data.
system.membus.snoop_filter.hit_single_requests      5255418                       # Number of requests hitting in the snoop filter with a single holder of the requested data.
system.membus.snoop_filter.hit_single_snoops            0                       # Number of snoops hitting in the snoop filter with a single holder of the requested data.
system.membus.snoop_filter.tot_requests      10519261                       # Total number of requests made to the snoop filter.
system.membus.snoop_filter.tot_snoops               0                       # Total number of snoops made to the snoop filter.
system.tol2bus.snoop_filter.hit_multi_requests          374                       # Number of requests hitting in the snoop filter with multiple (>1) holders of the requested data.
system.tol2bus.snoop_filter.hit_multi_snoops            2                       # Number of snoops hitting in the snoop filter with multiple (>1) holders of the requested data.
system.tol2bus.snoop_filter.hit_single_requests      5266250                       # Number of requests hitting in the snoop filter with a single holder of the requested data.
system.tol2bus.snoop_filter.hit_single_snoops          393                       # Number of snoops hitting in the snoop filter with a single holder of the requested data.
system.tol2bus.snoop_filter.tot_requests     10533764                       # Total number of requests made to the snoop filter.
system.tol2bus.snoop_filter.tot_snoops            395                       # Total number of snoops made to the snoop filter.
system.membus.pwrStateResidencyTicks::UNDEFINED 704180676000                       # Cumulative time (in ticks) in various power states
system.membus.trans_dist::ReadResp                860                       # Transaction distribution
system.membus.trans_dist::WritebackDirty      5254829                       # Transaction distribution
system.membus.trans_dist::CleanEvict              582                       # Transaction distribution
system.membus.trans_dist::ReadExReq           5262990                       # Transaction distribution
system.membus.trans_dist::ReadExResp          5262990                       # Transaction distribution
system.membus.trans_dist::ReadSharedReq           860                       # Transaction distribution
system.membus.pkt_count_system.l2.mem_side::system.mem_ctrls.port     15783111                       # Packet count per connected master and slave (bytes)
system.membus.pkt_count::total               15783111                       # Packet count per connected master and slave (bytes)
system.membus.pkt_size_system.l2.mem_side::system.mem_ctrls.port    673195456                       # Cumulative packet size per connected master and slave (bytes)
system.membus.pkt_size::total               673195456                       # Cumulative packet size per connected master and slave (bytes)
system.membus.snoops                                0                       # Total snoops (count)
system.membus.snoopTraffic                          0                       # Total snoop traffic (bytes)
system.membus.snoop_fanout::samples           5263850                       # Request fanout histogram
system.membus.snoop_fanout::mean                    0                       # Request fanout histogram
system.membus.snoop_fanout::stdev                   0                       # Request fanout histogram
system.membus.snoop_fanout::underflows              0      0.00%      0.00% # Request fanout histogram
system.membus.snoop_fanout::0                 5263850    100.00%    100.00% # Request fanout histogram
system.membus.snoop_fanout::1                       0      0.00%    100.00% # Request fanout histogram
system.membus.snoop_fanout::overflows               0      0.00%    100.00% # Request fanout histogram
system.membus.snoop_fanout::min_value               0                       # Request fanout histogram
system.membus.snoop_fanout::max_value               0                       # Request fanout histogram
system.membus.snoop_fanout::total             5263850                       # Request fanout histogram
system.membus.respLayer1.occupancy        27695051500                       # Layer occupancy (ticks)
system.membus.respLayer1.utilization              3.9                       # Layer utilization (%)
system.membus.reqLayer0.occupancy         31538577000                       # Layer occupancy (ticks)
system.membus.reqLayer0.utilization               4.5                       # Layer utilization (%)
system.tol2bus.pwrStateResidencyTicks::UNDEFINED 704180676000                       # Cumulative time (in ticks) in various power states
system.tol2bus.trans_dist::ReadResp              2904                       # Transaction distribution
system.tol2bus.trans_dist::WritebackDirty     10518745                       # Transaction distribution
system.tol2bus.trans_dist::WritebackClean          534                       # Transaction distribution
system.tol2bus.trans_dist::CleanEvict            2777                       # Transaction distribution
system.tol2bus.trans_dist::ReadExReq          5264610                       # Transaction distribution
system.tol2bus.trans_dist::ReadExResp         5264610                       # Transaction distribution
system.tol2bus.trans_dist::ReadCleanReq           774                       # Transaction distribution
system.tol2bus.trans_dist::ReadSharedReq         2130                       # Transaction distribution
system.tol2bus.pkt_count_system.cpu.icache.mem_side::system.l2.cpu_side         2082                       # Packet count per connected master and slave (bytes)
system.tol2bus.pkt_count_system.cpu.dcache.mem_side::system.l2.cpu_side     15799196                       # Packet count per connected master and slave (bytes)
system.tol2bus.pkt_count::total              15801278                       # Packet count per connected master and slave (bytes)
system.tol2bus.pkt_size_system.cpu.icache.mem_side::system.l2.cpu_side        83712                       # Cumulative packet size per connected master and slave (bytes)
system.tol2bus.pkt_size_system.cpu.dcache.mem_side::system.l2.cpu_side    673961984                       # Cumulative packet size per connected master and slave (bytes)
system.tol2bus.pkt_size::total              674045696                       # Cumulative packet size per connected master and slave (bytes)
system.tol2bus.snoops                         5255806                       # Total snoops (count)
system.tol2bus.snoopTraffic                 336309056                       # Total snoop traffic (bytes)
system.tol2bus.snoop_fanout::samples         10523320                       # Request fanout histogram
system.tol2bus.snoop_fanout::mean            0.000073                       # Request fanout histogram
system.tol2bus.snoop_fanout::stdev           0.008581                       # Request fanout histogram
system.tol2bus.snoop_fanout::underflows             0      0.00%      0.00% # Request fanout histogram
system.tol2bus.snoop_fanout::0               10522551     99.99%     99.99% # Request fanout histogram
system.tol2bus.snoop_fanout::1                    767      0.01%    100.00% # Request fanout histogram
system.tol2bus.snoop_fanout::2                      2      0.00%    100.00% # Request fanout histogram
system.tol2bus.snoop_fanout::overflows              0      0.00%    100.00% # Request fanout histogram
system.tol2bus.snoop_fanout::min_value              0                       # Request fanout histogram
system.tol2bus.snoop_fanout::max_value              2                       # Request fanout histogram
system.tol2bus.snoop_fanout::total           10523320                       # Request fanout histogram
system.tol2bus.reqLayer0.occupancy        21062664000                       # Layer occupancy (ticks)
system.tol2bus.reqLayer0.utilization              3.0                       # Layer utilization (%)
system.tol2bus.respLayer1.occupancy       15800224995                       # Layer occupancy (ticks)
system.tol2bus.respLayer1.utilization             2.2                       # Layer utilization (%)
system.tol2bus.respLayer0.occupancy           2322000                       # Layer occupancy (ticks)
system.tol2bus.respLayer0.utilization             0.0                       # Layer utilization (%)
system.voltage_domain.voltage                       1                       # Voltage in Volts
system.clk_domain.clock                          1000                       # Clock period in ticks
system.l2.pwrStateResidencyTicks::UNDEFINED 704180676000                       # Cumulative time (in ticks) in various power states
system.l2.demand_hits::.cpu.inst                  179                       # number of demand (read+write) hits
system.l2.demand_hits::.cpu.data                 3480                       # number of demand (read+write) hits
system.l2.demand_hits::total                     3659                       # number of demand (read+write) hits
system.l2.overall_hits::.cpu.inst                 179                       # number of overall hits
system.l2.overall_hits::.cpu.data                3480                       # number of overall hits
system.l2.overall_hits::total                    3659                       # number of overall hits
system.l2.demand_misses::.cpu.inst                595                       # number of demand (read+write) misses
system.l2.demand_misses::.cpu.data            5263260                       # number of demand (read+write) misses
system.l2.demand_misses::total                5263855                       # number of demand (read+write) misses
system.l2.overall_misses::.cpu.inst               595                       # number of overall misses
system.l2.overall_misses::.cpu.data           5263260                       # number of overall misses
system.l2.overall_misses::total               5263855                       # number of overall misses
system.l2.demand_miss_latency::.cpu.inst     60122000                       # number of demand (read+write) miss cycles
system.l2.demand_miss_latency::.cpu.data 524856121000                       # number of demand (read+write) miss cycles
system.l2.demand_miss_latency::total     524916243000                       # number of demand (read+write) miss cycles
system.l2.overall_miss_latency::.cpu.inst     60122000                       # number of overall miss cycles
system.l2.overall_miss_latency::.cpu.data 524856121000                       # number of overall miss cycles
system.l2.overall_miss_latency::total    524916243000                       # number of overall miss cycles
system.l2.demand_accesses::.cpu.inst              774                       # number of demand (read+write) accesses
system.l2.demand_accesses::.cpu.data          5266740                       # number of demand (read+write) accesses
system.l2.demand_accesses::total              5267514                       # number of demand (read+write) accesses
system.l2.overall_accesses::.cpu.inst             774                       # number of overall (read+write) accesses
system.l2.overall_accesses::.cpu.data         5266740                       # number of overall (read+write) accesses
system.l2.overall_accesses::total             5267514                       # number of overall (read+write) accesses
system.l2.demand_miss_rate::.cpu.inst        0.768734                       # miss rate for demand accesses
system.l2.demand_miss_rate::.cpu.data        0.999339                       # miss rate for demand accesses
system.l2.demand_miss_rate::total            0.999305                       # miss rate for demand accesses
system.l2.overall_miss_rate::.cpu.inst       0.768734                       # miss rate for overall accesses
system.l2.overall_miss_rate::.cpu.data       0.999339                       # miss rate for overall accesses
system.l2.overall_miss_rate::total           0.999305                       # miss rate for overall accesses
system.l2.demand_avg_miss_latency::.cpu.inst 101045.378151                       # average overall miss latency
system.l2.demand_avg_miss_latency::.cpu.data 99720.728408                       # average overall miss latency
system.l2.demand_avg_miss_latency::total 99720.878140                       # average overall miss latency
system.l2.overall_avg_miss_latency::.cpu.inst 101045.378151                       # average overall miss latency
system.l2.overall_avg_miss_latency::.cpu.data 99720.728408                       # average overall miss latency
system.l2.overall_avg_miss_latency::total 99720.878140                       # average overall miss latency
system.l2.blocked_cycles::no_mshrs                  0                       # number of cycles access was blocked
system.l2.blocked_cycles::no_targets                0                       # number of cycles access was blocked
system.l2.blocked::no_mshrs                         0                       # number of cycles access was blocked
system.l2.blocked::no_targets                       0                       # number of cycles access was blocked
system.l2.avg_blocked_cycles::no_mshrs            nan                       # average number of cycles each access was blocked
system.l2.avg_blocked_cycles::no_targets          nan                       # average number of cycles each access was blocked
system.l2.writebacks::.writebacks             5254829                       # number of writebacks
system.l2.writebacks::total                   5254829                       # number of writebacks
system.l2.demand_mshr_hits::.cpu.data               5                       # number of demand (read+write) MSHR hits
system.l2.demand_mshr_hits::total                   5                       # number of demand (read+write) MSHR hits
system.l2.overall_mshr_hits::.cpu.data              5                       # number of overall MSHR hits
system.l2.overall_mshr_hits::total                  5                       # number of overall MSHR hits
system.l2.demand_mshr_misses::.cpu.inst           595                       # number of demand (read+write) MSHR misses
system.l2.demand_mshr_misses::.cpu.data       5263255                       # number of demand (read+write) MSHR misses
system.l2.demand_mshr_misses::total           5263850                       # number of demand (read+write) MSHR misses
system.l2.overall_mshr_misses::.cpu.inst          595                       # number of overall MSHR misses
system.l2.overall_mshr_misses::.cpu.data      5263255                       # number of overall MSHR misses
system.l2.overall_mshr_misses::total          5263850                       # number of overall MSHR misses
system.l2.demand_mshr_miss_latency::.cpu.inst     48222000                       # number of demand (read+write) MSHR miss cycles
system.l2.demand_mshr_miss_latency::.cpu.data 419590605000                       # number of demand (read+write) MSHR miss cycles
system.l2.demand_mshr_miss_latency::total 419638827000                       # number of demand (read+write) MSHR miss cycles
system.l2.overall_mshr_miss_latency::.cpu.inst     48222000                       # number of overall MSHR miss cycles
system.l2.overall_mshr_miss_latency::.cpu.data 419590605000                       # number of overall MSHR miss cycles
system.l2.overall_mshr_miss_latency::total 419638827000                       # number of overall MSHR miss cycles
system.l2.demand_mshr_miss_rate::.cpu.inst     0.768734                       # mshr miss rate for demand accesses
system.l2.demand_mshr_miss_rate::.cpu.data     0.999338                       # mshr miss rate for demand accesses
system.l2.demand_mshr_miss_rate::total       0.999304                       # mshr miss rate for demand accesses
system.l2.overall_mshr_miss_rate::.cpu.inst     0.768734                       # mshr miss rate for overall accesses
system.l2.overall_mshr_miss_rate::.cpu.data     0.999338                       # mshr miss rate for overall accesses
system.l2.overall_mshr_miss_rate::total      0.999304                       # mshr miss rate for overall accesses
system.l2.demand_avg_mshr_miss_latency::.cpu.inst 81045.378151                       # average overall mshr miss latency
system.l2.demand_avg_mshr_miss_latency::.cpu.data 79720.744102                       # average overall mshr miss latency
system.l2.demand_avg_mshr_miss_latency::total 79720.893832                       # average overall mshr miss latency
system.l2.overall_avg_mshr_miss_latency::.cpu.inst 81045.378151                       # average overall mshr miss latency
system.l2.overall_avg_mshr_miss_latency::.cpu.data 79720.744102                       # average overall mshr miss latency
system.l2.overall_avg_mshr_miss_latency::total 79720.893832                       # average overall mshr miss latency
system.l2.replacements                        5255806                       # number of replacements
system.l2.WritebackDirty_hits::.writebacks      5263916                       # number of WritebackDirty hits
system.l2.WritebackDirty_hits::total          5263916                       # number of WritebackDirty hits
system.l2.WritebackDirty_accesses::.writebacks      5263916                       # number of WritebackDirty accesses(hits+misses)
system.l2.WritebackDirty_accesses::total      5263916                       # number of WritebackDirty accesses(hits+misses)
system.l2.WritebackClean_hits::.writebacks          521                       # number of WritebackClean hits
system.l2.WritebackClean_hits::total              521                       # number of WritebackClean hits
system.l2.WritebackClean_accesses::.writebacks          521                       # number of WritebackClean accesses(hits+misses)
system.l2.WritebackClean_accesses::total          521                       # number of WritebackClean accesses(hits+misses)
system.l2.ReadExReq_hits::.cpu.data              1620                       # number of ReadExReq hits
system.l2.ReadExReq_hits::total                  1620                       # number of ReadExReq hits
system.l2.ReadExReq_misses::.cpu.data         5262990                       # number of ReadExReq misses
system.l2.ReadExReq_misses::total             5262990                       # number of ReadExReq misses
system.l2.ReadExReq_miss_latency::.cpu.data 524828043000                       # number of ReadExReq miss cycles
system.l2.ReadExReq_miss_latency::total  524828043000                       # number of ReadExReq miss cycles
system.l2.ReadExReq_accesses::.cpu.data       5264610                       # number of ReadExReq accesses(hits+misses)
system.l2.ReadExReq_accesses::total           5264610                       # number of ReadExReq accesses(hits+misses)
system.l2.ReadExReq_miss_rate::.cpu.data     0.999692                       # miss rate for ReadExReq accesses
system.l2.ReadExReq_miss_rate::total         0.999692                       # miss rate for ReadExReq accesses
system.l2.ReadExReq_avg_miss_latency::.cpu.data 99720.509254                       # average ReadExReq miss latency
system.l2.ReadExReq_avg_miss_latency::total 99720.509254                       # average ReadExReq miss latency
system.l2.ReadExReq_mshr_misses::.cpu.data      5262990                       # number of ReadExReq MSHR misses
system.l2.ReadExReq_mshr_misses::total        5262990                       # number of ReadExReq MSHR misses
system.l2.ReadExReq_mshr_miss_latency::.cpu.data 419568243000                       # number of ReadExReq MSHR miss cycles
system.l2.ReadExReq_mshr_miss_latency::total 419568243000                       # number of ReadExReq MSHR miss cycles
system.l2.ReadExReq_mshr_miss_rate::.cpu.data     0.999692                       # mshr miss rate for ReadExReq accesses
system.l2.ReadExReq_mshr_miss_rate::total     0.999692                       # mshr miss rate for ReadExReq accesses
system.l2.ReadExReq_avg_mshr_miss_latency::.cpu.data 79720.509254                       # average ReadExReq mshr miss latency
system.l2.ReadExReq_avg_mshr_miss_latency::total 79720.509254                       # average ReadExReq mshr miss latency
system.l2.ReadCleanReq_hits::.cpu.inst            179                       # number of ReadCleanReq hits
system.l2.ReadCleanReq_hits::total                179                       # number of ReadCleanReq hits
system.l2.ReadCleanReq_misses::.cpu.inst          595                       # number of ReadCleanReq misses
system.l2.ReadCleanReq_misses::total              595                       # number of ReadCleanReq misses
system.l2.ReadCleanReq_miss_latency::.cpu.inst     60122000                       # number of ReadCleanReq miss cycles
system.l2.ReadCleanReq_miss_latency::total     60122000                       # number of ReadCleanReq miss cycles
system.l2.ReadCleanReq_accesses::.cpu.inst          774                       # number of ReadCleanReq accesses(hits+misses)
system.l2.ReadCleanReq_accesses::total            774                       # number of ReadCleanReq accesses(hits+misses)
system.l2.ReadCleanReq_miss_rate::.cpu.inst     0.768734                       # miss rate for ReadCleanReq accesses
system.l2.ReadCleanReq_miss_rate::total      0.768734                       # miss rate for ReadCleanReq accesses
system.l2.ReadCleanReq_avg_miss_latency::.cpu.inst 101045.378151                       # average ReadCleanReq miss latency
system.l2.ReadCleanReq_avg_miss_latency::total 101045.378151                       # average ReadCleanReq miss latency
system.l2.ReadCleanReq_mshr_misses::.cpu.inst          595                       # number of ReadCleanReq MSHR misses
system.l2.ReadCleanReq_mshr_misses::total          595                       # number of ReadCleanReq MSHR misses
system.l2.ReadCleanReq_mshr_miss_latency::.cpu.inst     48222000                       # number of ReadCleanReq MSHR miss cycles
system.l2.ReadCleanReq_mshr_miss_latency::total     48222000                       # number of ReadCleanReq MSHR miss cycles
system.l2.ReadCleanReq_mshr_miss_rate::.cpu.inst     0.768734                       # mshr miss rate for ReadCleanReq accesses
system.l2.ReadCleanReq_mshr_miss_rate::total     0.768734                       # mshr miss rate for ReadCleanReq accesses
system.l2.ReadCleanReq_avg_mshr_miss_latency::.cpu.inst 81045.378151                       # average ReadCleanReq mshr miss latency
system.l2.ReadCleanReq_avg_mshr_miss_latency::total 81045.378151                       # average ReadCleanReq mshr miss latency
system.l2.ReadSharedReq_hits::.cpu.data          1860                       # number of ReadSharedReq hits
system.l2.ReadSharedReq_hits::total              1860                       # number of ReadSharedReq hits
system.l2.ReadSharedReq_misses::.cpu.data          270                       # number of ReadSharedReq misses
system.l2.ReadSharedReq_misses::total             270                       # number of ReadSharedReq misses
system.l2.ReadSharedReq_miss_latency::.cpu.data     28078000                       # number of ReadSharedReq miss cycles
system.l2.ReadSharedReq_miss_latency::total     28078000                       # number of ReadSharedReq miss cycles
system.l2.ReadSharedReq_accesses::.cpu.data         2130                       # number of ReadSharedReq accesses(hits+misses)
system.l2.ReadSharedReq_accesses::total          2130                       # number of ReadSharedReq accesses(hits+misses)
system.l2.ReadSharedReq_miss_rate::.cpu.data     0.126761                       # miss rate for ReadSharedReq accesses
system.l2.ReadSharedReq_miss_rate::total     0.126761                       # miss rate for ReadSharedReq accesses
system.l2.ReadSharedReq_avg_miss_latency::.cpu.data 103992.592593                       # average ReadSharedReq miss latency
system.l2.ReadSharedReq_avg_miss_latency::total 103992.592593                       # average ReadSharedReq miss latency
system.l2.ReadSharedReq_mshr_hits::.cpu.data            5                       # number of ReadSharedReq MSHR hits
system.l2.ReadSharedReq_mshr_hits::total            5                       # number of ReadSharedReq MSHR hits
system.l2.ReadSharedReq_mshr_misses::.cpu.data          265                       # number of ReadSharedReq MSHR misses
system.l2.ReadSharedReq_mshr_misses::total          265                       # number of ReadSharedReq MSHR misses
system.l2.ReadSharedReq_mshr_miss_latency::.cpu.data     22362000                       # number of ReadSharedReq MSHR miss cycles
system.l2.ReadSharedReq_mshr_miss_latency::total     22362000                       # number of ReadSharedReq MSHR miss cycles
system.l2.ReadSharedReq_mshr_miss_rate::.cpu.data     0.124413                       # mshr miss rate for ReadSharedReq accesses
system.l2.ReadSharedReq_mshr_miss_rate::total     0.124413                       # mshr miss rate for ReadSharedReq accesses
system.l2.ReadSharedReq_avg_mshr_miss_latency::.cpu.data 84384.905660                       # average ReadSharedReq mshr miss latency
system.l2.ReadSharedReq_avg_mshr_miss_latency::total 84384.905660                       # average ReadSharedReq mshr miss latency
system.l2.tags.pwrStateResidencyTicks::UNDEFINED 704180676000                       # Cumulative time (in ticks) in various power states
system.l2.tags.tagsinuse                  8137.288540                       # Cycle average of tags in use
system.l2.tags.total_refs                    10533385                       # Total number of references to valid blocks.
system.l2.tags.sampled_refs                   5263998                       # Sample count of references to valid blocks.
system.l2.tags.avg_refs                      2.001024                       # Average number of references to valid blocks.
system.l2.tags.warmup_cycle                     87000                       # Cycle when the warmup percentage was hit.
system.l2.tags.occ_blocks::.writebacks       0.131581                       # Average occupied blocks per requestor
system.l2.tags.occ_blocks::.cpu.inst         3.344447                       # Average occupied blocks per requestor
system.l2.tags.occ_blocks::.cpu.data      8133.812511                       # Average occupied blocks per requestor
system.l2.tags.occ_percent::.writebacks      0.000016                       # Average percentage of cache occupancy
system.l2.tags.occ_percent::.cpu.inst        0.000408                       # Average percentage of cache occupancy
system.l2.tags.occ_percent::.cpu.data        0.992897                       # Average percentage of cache occupancy
system.l2.tags.occ_percent::total            0.993321                       # Average percentage of cache occupancy
system.l2.tags.occ_task_id_blocks::1024          8192                       # Occupied blocks per task id
system.l2.tags.age_task_id_blocks_1024::0           76                       # Occupied blocks per task id
system.l2.tags.age_task_id_blocks_1024::1          679                       # Occupied blocks per task id
system.l2.tags.age_task_id_blocks_1024::2         6781                       # Occupied blocks per task id
system.l2.tags.age_task_id_blocks_1024::3          656                       # Occupied blocks per task id
system.l2.tags.occ_task_id_percent::1024            1                       # Percentage of cache occupancy per task id
system.l2.tags.tag_accesses                  26330778                       # Number of tag accesses
system.l2.tags.data_accesses                 26330778                       # Number of data accesses
system.cpu_voltage_domain.voltage                   1                       # Voltage in Volts
system.mem_ctrls.pwrStateResidencyTicks::UNDEFINED 704180676000                       # Cumulative time (in ticks) in various power states
system.mem_ctrls.bytes_read::.cpu.inst          38080                       # Number of bytes read from this memory
system.mem_ctrls.bytes_read::.cpu.data      336848320                       # Number of bytes read from this memory
system.mem_ctrls.bytes_read::total          336886400                       # Number of bytes read from this memory
system.mem_ctrls.bytes_inst_read::.cpu.inst        38080                       # Number of instructions bytes read from this memory
system.mem_ctrls.bytes_inst_read::total         38080                       # Number of instructions bytes read from this memory
system.mem_ctrls.bytes_written::.writebacks    336309056                       # Number of bytes written to this memory
system.mem_ctrls.bytes_written::total       336309056                       # Number of bytes written to this memory
system.mem_ctrls.num_reads::.cpu.inst             595                       # Number of read requests responded to by this memory
system.mem_ctrls.num_reads::.cpu.data         5263255                       # Number of read requests responded to by this memory
system.mem_ctrls.num_reads::total             5263850                       # Number of read requests responded to by this memory
system.mem_ctrls.num_writes::.writebacks      5254829                       # Number of write requests responded to by this memory
system.mem_ctrls.num_writes::total            5254829                       # Number of write requests responded to by this memory
system.mem_ctrls.bw_read::.cpu.inst             54077                       # Total read bandwidth from this memory (bytes/s)
system.mem_ctrls.bw_read::.cpu.data         478354961                       # Total read bandwidth from this memory (bytes/s)
system.mem_ctrls.bw_read::total             478409038                       # Total read bandwidth from this memory (bytes/s)
system.mem_ctrls.bw_inst_read::.cpu.inst        54077                       # Instruction read bandwidth from this memory (bytes/s)
system.mem_ctrls.bw_inst_read::total            54077                       # Instruction read bandwidth from this memory (bytes/s)
system.mem_ctrls.bw_write::.writebacks      477589158                       # Write bandwidth from this memory (bytes/s)
system.mem_ctrls.bw_write::total            477589158                       # Write bandwidth from this memory (bytes/s)
system.mem_ctrls.bw_total::.writebacks      477589158                       # Total bandwidth to/from this memory (bytes/s)
system.mem_ctrls.bw_total::.cpu.inst            54077                       # Total bandwidth to/from this memory (bytes/s)
system.mem_ctrls.bw_total::.cpu.data        478354961                       # Total bandwidth to/from this memory (bytes/s)
system.mem_ctrls.bw_total::total            955998196                       # Total bandwidth to/from this memory (bytes/s)
system.mem_ctrls.avgPriority_.writebacks::samples   5254829.00                       # Average QoS priority value for accepted requests
system.mem_ctrls.avgPriority_.cpu.inst::samples       595.00                       # Average QoS priority value for accepted requests
system.mem_ctrls.avgPriority_.cpu.data::samples   5263255.00                       # Average QoS priority value for accepted requests
system.mem_ctrls.priorityMinLatency      0.000000018750                       # per QoS priority minimum request to response latency (s)
system.mem_ctrls.priorityMaxLatency      0.000635648500                       # per QoS priority maximum request to response latency (s)
system.mem_ctrls.numReadWriteTurnArounds       328419                       # Number of turnarounds from READ to WRITE
system.mem_ctrls.numWriteReadTurnArounds       328419                       # Number of turnarounds from WRITE to READ
system.mem_ctrls.numStayReadState            15634891                       # Number of times bus staying in READ state
system.mem_ctrls.numStayWriteState            4926428                       # Number of times bus staying in WRITE state
system.mem_ctrls.readReqs                     5263850                       # Number of read requests accepted
system.mem_ctrls.writeReqs                    5254829                       # Number of write requests accepted
system.mem_ctrls.readBursts                   5263850                       # Number of DRAM read bursts, including those serviced by the write queue
system.mem_ctrls.writeBursts                  5254829                       # Number of DRAM write bursts, including those merged in the write queue
system.mem_ctrls.servicedByWrQ                      0                       # Number of DRAM read bursts serviced by the write queue
system.mem_ctrls.mergedWrBursts                     0                       # Number of DRAM write bursts merged with an existing one
system.mem_ctrls.neitherReadNorWriteReqs            0                       # Number of requests that are neither read nor write
system.mem_ctrls.perBankRdBursts::0            329174                       # Per bank write bursts
system.mem_ctrls.perBankRdBursts::1            329086                       # Per bank write bursts
system.mem_ctrls.perBankRdBursts::2            329072                       # Per bank write bursts
system.mem_ctrls.perBankRdBursts::3            329044                       # Per bank write bursts
system.mem_ctrls.perBankRdBursts::4            329105                       # Per bank write bursts
system.mem_ctrls.perBankRdBursts::5            328943                       # Per bank write bursts
system.mem_ctrls.perBankRdBursts::6            328907                       # Per bank write bursts
system.mem_ctrls.perBankRdBursts::7            328871                       # Per bank write bursts
system.mem_ctrls.perBankRdBursts::8            328799                       # Per bank write bursts
system.mem_ctrls.perBankRdBursts::9            329039                       # Per bank write bursts
system.mem_ctrls.perBankRdBursts::10           329027                       # Per bank write bursts
system.mem_ctrls.perBankRdBursts::11           328959                       # Per bank write bursts
system.mem_ctrls.perBankRdBursts::12           328901                       # Per bank write bursts
system.mem_ctrls.perBankRdBursts::13           328864                       # Per bank write bursts
system.mem_ctrls.perBankRdBursts::14           328975                       # Per bank write bursts
system.mem_ctrls.perBankRdBursts::15           329084                       # Per bank write bursts
system.mem_ctrls.perBankWrBursts::0            328555                       # Per bank write bursts
system.mem_ctrls.perBankWrBursts::1            328517                       # Per bank write bursts
system.mem_ctrls.perBankWrBursts::2            328498                       # Per bank write bursts
system.mem_ctrls.perBankWrBursts::3            328500                       # Per bank write bursts
system.mem_ctrls.perBankWrBursts::4            328511                       # Per bank write bursts
system.mem_ctrls.perBankWrBursts::5            328403                       # Per bank write bursts
system.mem_ctrls.perBankWrBursts::6            328320                       # Per bank write bursts
system.mem_ctrls.perBankWrBursts::7            328320                       # Per bank write bursts
system.mem_ctrls.perBankWrBursts::8            328250                       # Per bank write bursts
system.mem_ctrls.perBankWrBursts::9            328454                       # Per bank write bursts
system.mem_ctrls.perBankWrBursts::10           328457                       # Per bank write bursts
system.mem_ctrls.perBankWrBursts::11           328438                       # Per bank write bursts
system.mem_ctrls.perBankWrBursts::12           328375                       # Per bank write bursts
system.mem_ctrls.perBankWrBursts::13           328328                       # Per bank write bursts
system.mem_ctrls.perBankWrBursts::14           328382                       # Per bank write bursts
system.mem_ctrls.perBankWrBursts::15           328492                       # Per bank write bursts
system.mem_ctrls.avgRdQLen                       1.00                       # Average read queue length when enqueuing
system.mem_ctrls.avgWrQLen                      25.56                       # Average write queue length when enqueuing
system.mem_ctrls.totQLat                  51109434250                       # Total ticks spent queuing
system.mem_ctrls.totBusLat                26319250000                       # Total ticks spent in databus transfers
system.mem_ctrls.totMemAccLat            149806621750                       # Total ticks spent from burst creation until serviced by the DRAM
system.mem_ctrls.avgQLat                      9709.52                       # Average queueing delay per DRAM burst
system.mem_ctrls.avgBusLat                    5000.00                       # Average bus latency per DRAM burst
system.mem_ctrls.avgMemAccLat                28459.52                       # Average memory access latency per DRAM burst
system.mem_ctrls.numRdRetry                         0                       # Number of times read queue was full causing retry
system.mem_ctrls.numWrRetry                         0                       # Number of times write queue was full causing retry
system.mem_ctrls.readRowHits                  4809485                       # Number of row buffer hits during reads
system.mem_ctrls.writeRowHits                 4885005                       # Number of row buffer hits during writes
system.mem_ctrls.readRowHitRate                 91.37                       # Row buffer hit rate for reads
system.mem_ctrls.writeRowHitRate                92.96                       # Row buffer hit rate for writes
system.mem_ctrls.readPktSize::0                     0                       # Read request sizes (log2)
system.mem_ctrls.readPktSize::1                     0                       # Read request sizes (log2)
system.mem_ctrls.readPktSize::2                     0                       # Read request sizes (log2)
system.mem_ctrls.readPktSize::3                     0                       # Read request sizes (log2)
system.mem_ctrls.readPktSize::4                     0                       # Read request sizes (log2)
system.mem_ctrls.readPktSize::5                     0                       # Read request sizes (log2)
system.mem_ctrls.readPktSize::6               5263850                       # Read request sizes (log2)
system.mem_ctrls.writePktSize::0                    0                       # Write request sizes (log2)
system.mem_ctrls.writePktSize::1                    0                       # Write request sizes (log2)
system.mem_ctrls.writePktSize::2                    0                       # Write request sizes (log2)
system.mem_ctrls.writePktSize::3                    0                       # Write request sizes (log2)
system.mem_ctrls.writePktSize::4                    0                       # Write request sizes (log2)
system.mem_ctrls.writePktSize::5                    0                       # Write request sizes (log2)
system.mem_ctrls.writePktSize::6              5254829                       # Write request sizes (log2)
system.mem_ctrls.rdQLenPdf::0                 5263601                       # What read queue length does an incoming req see
system.mem_ctrls.rdQLenPdf::1                     229                       # What read queue length does an incoming req see
system.mem_ctrls.rdQLenPdf::2                      20                       # What read queue length does an incoming req see
system.mem_ctrls.rdQLenPdf::3                       0                       # What read queue length does an incoming req see
system.mem_ctrls.rdQLenPdf::4                       0                       # What read queue length does an incoming req see
system.mem_ctrls.rdQLenPdf::5                       0                       # What read queue length does an incoming req see
system.mem_ctrls.rdQLenPdf::6                       0                       # What read queue length does an incoming req see
system.mem_ctrls.rdQLenPdf::7                       0                       # What read queue length does an incoming req see
system.mem_ctrls.rdQLenPdf::8                       0                       # What read queue length does an incoming req see
system.mem_ctrls.rdQLenPdf::9                       0                       # What read queue length does an incoming req see
system.mem_ctrls.rdQLenPdf::10                      0                       # What read queue length does an incoming req see
system.mem_ctrls.rdQLenPdf::11                      0                       # What read queue length does an incoming req see
system.mem_ctrls.rdQLenPdf::12                      0                       # What read queue length does an incoming req see
system.mem_ctrls.rdQLenPdf::13                      0                       # What read queue length does an incoming req see
system.mem_ctrls.rdQLenPdf::14                      0                       # What read queue length does an incoming req see
system.mem_ctrls.rdQLenPdf::15                      0                       # What read queue length does an incoming req see
system.mem_ctrls.rdQLenPdf::16                      0                       # What read queue length does an incoming req see
system.mem_ctrls.rdQLenPdf::17                      0                       # What read queue length does an incoming req see
system.mem_ctrls.rdQLenPdf::18                      0                       # What read queue length does an incoming req see
system.mem_ctrls.rdQLenPdf::19                      0                       # What read queue length does an incoming req see
system.mem_ctrls.rdQLenPdf::20                      0                       # What read queue length does an incoming req see
system.mem_ctrls.rdQLenPdf::21                      0                       # What read queue length does an incoming req see
system.mem_ctrls.rdQLenPdf::22                      0                       # What read queue length does an incoming req see
system.mem_ctrls.rdQLenPdf::23                      0                       # What read queue length does an incoming req see
system.mem_ctrls.rdQLenPdf::24                      0                       # What read queue length does an incoming req see
system.mem_ctrls.rdQLenPdf::25                      0                       # What read queue length does an incoming req see
system.mem_ctrls.rdQLenPdf::26                      0                       # What read queue length does an incoming req see
system.mem_ctrls.rdQLenPdf::27                      0                       # What read queue length does an incoming req see
system.mem_ctrls.rdQLenPdf::28                      0                       # What read queue length does an incoming req see
system.mem_ctrls.rdQLenPdf::29                      0                       # What read queue length does an incoming req see
system.mem_ctrls.rdQLenPdf::30                      0                       # What read queue length does an incoming req see
system.mem_ctrls.rdQLenPdf::31                      0                       # What read queue length does an incoming req see
system.mem_ctrls.wrQLenPdf::0                       1                       # What write queue length does an incoming req see
system.mem_ctrls.wrQLenPdf::1                       1                       # What write queue length does an incoming req see
system.mem_ctrls.wrQLenPdf::2                       1                       # What write queue length does an incoming req see
system.mem_ctrls.wrQLenPdf::3                       1                       # What write queue length does an incoming req see
system.mem_ctrls.wrQLenPdf::4                       1                       # What write queue length does an incoming req see
system.mem_ctrls.wrQLenPdf::5                       1                       # What write queue length does an incoming req see
system.mem_ctrls.wrQLenPdf::6                       1                       # What write queue length does an incoming req see
system.mem_ctrls.wrQLenPdf::7                       1                       # What write queue length does an incoming req see
system.mem_ctrls.wrQLenPdf::8                       1                       # What write queue length does an incoming req see
system.mem_ctrls.wrQLenPdf::9                       1                       # What write queue length does an incoming req see
system.mem_ctrls.wrQLenPdf::10                      1                       # What write queue length does an incoming req see
system.mem_ctrls.wrQLenPdf::11                      1                       # What write queue length does an incoming req see
system.mem_ctrls.wrQLenPdf::12                      1                       # What write queue length does an incoming req see
system.mem_ctrls.wrQLenPdf::13                      1                       # What write queue length does an incoming req see
system.mem_ctrls.wrQLenPdf::14                      1                       # What write queue length does an incoming req see
system.mem_ctrls.wrQLenPdf::15                     21                       # What write queue length does an incoming req see
system.mem_ctrls.wrQLenPdf::16                     47                       # What write queue length does an incoming req see
system.mem_ctrls.wrQLenPdf::17                 328415                       # What write queue length does an incoming req see
system.mem_ctrls.wrQLenPdf::18                 328419                       # What write queue length does an incoming req see
system.mem_ctrls.wrQLenPdf::19                 328424                       # What write queue length does an incoming req see
system.mem_ctrls.wrQLenPdf::20                 328420                       # What write queue length does an incoming req see
system.mem_ctrls.wrQLenPdf::21                 328423                       # What write queue length does an incoming req see
system.mem_ctrls.wrQLenPdf::22                 328422                       # What write queue length does an incoming req see
system.mem_ctrls.wrQLenPdf::23                 328444                       # What write queue length does an incoming req see
system.mem_ctrls.wrQLenPdf::24                 328420                       # What write queue length does an incoming req see
system.mem_ctrls.wrQLenPdf::25                 328420                       # What write queue length does an incoming req see
system.mem_ctrls.wrQLenPdf::26                 328421                       # What write queue length does an incoming req see
system.mem_ctrls.wrQLenPdf::27                 328420                       # What write queue length does an incoming req see
system.mem_ctrls.wrQLenPdf::28                 328422                       # What write queue length does an incoming req see
system.mem_ctrls.wrQLenPdf::29                 328419                       # What write queue length does an incoming req see
system.mem_ctrls.wrQLenPdf::30                 328419                       # What write queue length does an incoming req see
system.mem_ctrls.wrQLenPdf::31                 328419                       # What write queue length does an incoming req see
system.mem_ctrls.wrQLenPdf::32                 328419                       # What write queue length does an incoming req see
system.mem_ctrls.wrQLenPdf::33                      0                       # What write queue length does an incoming req see
system.mem_ctrls.wrQLenPdf::34                      0                       # What write queue length does an incoming req see
system.mem_ctrls.wrQLenPdf::35                      0                       # What write queue length does an incoming req see
system.mem_ctrls.wrQLenPdf::36                      0                       # What write queue length does an incoming req see
system.mem_ctrls.wrQLenPdf::37                      0                       # What write queue length does an incoming req see
system.mem_ctrls.wrQLenPdf::38                      0                       # What write queue length does an incoming req see
system.mem_ctrls.wrQLenPdf::39                      0                       # What write queue length does an incoming req see
system.mem_ctrls.wrQLenPdf::40                      0                       # What write queue length does an incoming req see
system.mem_ctrls.wrQLenPdf::41                      0                       # What write queue length does an incoming req see
system.mem_ctrls.wrQLenPdf::42                      0                       # What write queue length does an incoming req see
system.mem_ctrls.wrQLenPdf::43                      0                       # What write queue length does an incoming req see
system.mem_ctrls.wrQLenPdf::44                      0                       # What write queue length does an incoming req see
system.mem_ctrls.wrQLenPdf::45                      0                       # What write queue length does an incoming req see
system.mem_ctrls.wrQLenPdf::46                      0                       # What write queue length does an incoming req see
system.mem_ctrls.wrQLenPdf::47                      0                       # What write queue length does an incoming req see
system.mem_ctrls.wrQLenPdf::48                      0                       # What write queue length does an incoming req see
system.mem_ctrls.wrQLenPdf::49                      0                       # What write queue length does an incoming req see
system.mem_ctrls.wrQLenPdf::50                      0                       # What write queue length does an incoming req see
system.mem_ctrls.wrQLenPdf::51                      0                       # What write queue length does an incoming req see
system.mem_ctrls.wrQLenPdf::52                      0                       # What write queue length does an incoming req see
system.mem_ctrls.wrQLenPdf::53                      0                       # What write queue length does an incoming req see
system.mem_ctrls.wrQLenPdf::54                      0                       # What write queue length does an incoming req see
system.mem_ctrls.wrQLenPdf::55                      0                       # What write queue length does an incoming req see
system.mem_ctrls.wrQLenPdf::56                      0                       # What write queue length does an incoming req see
system.mem_ctrls.wrQLenPdf::57                      0                       # What write queue length does an incoming req see
system.mem_ctrls.wrQLenPdf::58                      0                       # What write queue length does an incoming req see
system.mem_ctrls.wrQLenPdf::59                      0                       # What write queue length does an incoming req see
system.mem_ctrls.wrQLenPdf::60                      0                       # What write queue length does an incoming req see
system.mem_ctrls.wrQLenPdf::61                      0                       # What write queue length does an incoming req see
system.mem_ctrls.wrQLenPdf::62                      0                       # What write queue length does an incoming req see
system.mem_ctrls.wrQLenPdf::63                      0                       # What write queue length does an incoming req see
system.mem_ctrls.bytesPerActivate::samples       824160                       # Bytes accessed per row activation
system.mem_ctrls.bytesPerActivate::mean    816.823918                       # Bytes accessed per row activation
system.mem_ctrls.bytesPerActivate::gmean   680.657190                       # Bytes accessed per row activation
system.mem_ctrls.bytesPerActivate::stdev   326.566769                       # Bytes accessed per row activation
system.mem_ctrls.bytesPerActivate::0-127        38789      4.71%      4.71% # Bytes accessed per row activation
system.mem_ctrls.bytesPerActivate::128-255        49960      6.06%     10.77% # Bytes accessed per row activation
system.mem_ctrls.bytesPerActivate::256-383        51188      6.21%     16.98% # Bytes accessed per row activation
system.mem_ctrls.bytesPerActivate::384-511        26218      3.18%     20.16% # Bytes accessed per row activation
system.mem_ctrls.bytesPerActivate::512-639         4712      0.57%     20.73% # Bytes accessed per row activation
system.mem_ctrls.bytesPerActivate::640-767        37431      4.54%     25.27% # Bytes accessed per row activation
system.mem_ctrls.bytesPerActivate::768-895        59139      7.18%     32.45% # Bytes accessed per row activation
system.mem_ctrls.bytesPerActivate::896-1023        56214      6.82%     39.27% # Bytes accessed per row activation
system.mem_ctrls.bytesPerActivate::1024-1151       500509     60.73%    100.00% # Bytes accessed per row activation
system.mem_ctrls.bytesPerActivate::total       824160                       # Bytes accessed per row activation
system.mem_ctrls.rdPerTurnAround::samples       328419                       # Reads before turning the bus around for writes
system.mem_ctrls.rdPerTurnAround::mean      16.027812                       # Reads before turning the bus around for writes
system.mem_ctrls.rdPerTurnAround::gmean     16.004039                       # Reads before turning the bus around for writes
system.mem_ctrls.rdPerTurnAround::stdev      7.176352                       # Reads before turning the bus around for writes
system.mem_ctrls.rdPerTurnAround::0-127        328411    100.00%    100.00% # Reads before turning the bus around for writes
system.mem_ctrls.rdPerTurnAround::256-383            4      0.00%    100.00% # Reads before turning the bus around for writes
system.mem_ctrls.rdPerTurnAround::384-511            1      0.00%    100.00% # Reads before turning the bus around for writes
system.mem_ctrls.rdPerTurnAround::1024-1151            1      0.00%    100.00% # Reads before turning the bus around for writes
system.mem_ctrls.rdPerTurnAround::1280-1407            1      0.00%    100.00% # Reads before turning the bus around for writes
system.mem_ctrls.rdPerTurnAround::3584-3711            1      0.00%    100.00% # Reads before turning the bus around for writes
system.mem_ctrls.rdPerTurnAround::total        328419                       # Reads before turning the bus around for writes
system.mem_ctrls.wrPerTurnAround::samples       328419                       # Writes before turning the bus around for reads
system.mem_ctrls.wrPerTurnAround::mean      16.000292                       # Writes before turning the bus around for reads
system.mem_ctrls.wrPerTurnAround::gmean     16.000274                       # Writes before turning the bus around for reads
[...]
system.cpu.icache.tags.occ_blocks::.cpu.inst   221.555553                       # Average occupied blocks per requestor
system.cpu.icache.tags.occ_percent::.cpu.inst     0.865451                       # Average percentage of cache occupancy
system.cpu.icache.tags.occ_percent::total     0.865451                       # Average percentage of cache occupancy
system.cpu.icache.tags.occ_task_id_blocks::1024          240                       # Occupied blocks per task id
system.cpu.icache.tags.age_task_id_blocks_1024::4          240                       # Occupied blocks per task id
system.cpu.icache.tags.occ_task_id_percent::1024     0.937500                       # Percentage of cache occupancy per task id
system.cpu.icache.tags.tag_accesses          31871810                       # Number of tag accesses
system.cpu.icache.tags.data_accesses         31871810                       # Number of data accesses
system.cpu.dtb.walker.pwrStateResidencyTicks::UNDEFINED 704180676000                       # Cumulative time (in ticks) in various power states
system.cpu.dtb.stage2_mmu.stage2_tlb.walker.pwrStateResidencyTicks::UNDEFINED 704180676000                       # Cumulative time (in ticks) in various power states
system.cpu.dcache.pwrStateResidencyTicks::UNDEFINED 704180676000                       # Cumulative time (in ticks) in various power states
system.cpu.dcache.demand_hits::.cpu.data     75854713                       # number of demand (read+write) hits
system.cpu.dcache.demand_hits::total         75854713                       # number of demand (read+write) hits
system.cpu.dcache.overall_hits::.cpu.data     75854746                       # number of overall hits
system.cpu.dcache.overall_hits::total        75854746                       # number of overall hits
system.cpu.dcache.demand_misses::.cpu.data     10527340                       # number of demand (read+write) misses
system.cpu.dcache.demand_misses::total       10527340                       # number of demand (read+write) misses
system.cpu.dcache.overall_misses::.cpu.data     10527378                       # number of overall misses
system.cpu.dcache.overall_misses::total      10527378                       # number of overall misses
system.cpu.dcache.demand_miss_latency::.cpu.data 1107398564999                       # number of demand (read+write) miss cycles
system.cpu.dcache.demand_miss_latency::total 1107398564999                       # number of demand (read+write) miss cycles
system.cpu.dcache.overall_miss_latency::.cpu.data 1107398564999                       # number of overall miss cycles
system.cpu.dcache.overall_miss_latency::total 1107398564999                       # number of overall miss cycles
system.cpu.dcache.demand_accesses::.cpu.data     86382053                       # number of demand (read+write) accesses
system.cpu.dcache.demand_accesses::total     86382053                       # number of demand (read+write) accesses
system.cpu.dcache.overall_accesses::.cpu.data     86382124                       # number of overall (read+write) accesses
system.cpu.dcache.overall_accesses::total     86382124                       # number of overall (read+write) accesses
system.cpu.dcache.demand_miss_rate::.cpu.data     0.121870                       # miss rate for demand accesses
system.cpu.dcache.demand_miss_rate::total     0.121870                       # miss rate for demand accesses
system.cpu.dcache.overall_miss_rate::.cpu.data     0.121870                       # miss rate for overall accesses
system.cpu.dcache.overall_miss_rate::total     0.121870                       # miss rate for overall accesses
system.cpu.dcache.demand_avg_miss_latency::.cpu.data 105192.628432                       # average overall miss latency
system.cpu.dcache.demand_avg_miss_latency::total 105192.628432                       # average overall miss latency
system.cpu.dcache.overall_avg_miss_latency::.cpu.data 105192.248725                       # average overall miss latency
system.cpu.dcache.overall_avg_miss_latency::total 105192.248725                       # average overall miss latency
system.cpu.dcache.blocked_cycles::no_mshrs          115                       # number of cycles access was blocked
system.cpu.dcache.blocked_cycles::no_targets            0                       # number of cycles access was blocked
system.cpu.dcache.blocked::no_mshrs                 3                       # number of cycles access was blocked
system.cpu.dcache.blocked::no_targets               0                       # number of cycles access was blocked
system.cpu.dcache.avg_blocked_cycles::no_mshrs    38.333333                       # average number of cycles each access was blocked
system.cpu.dcache.avg_blocked_cycles::no_targets          nan                       # average number of cycles each access was blocked
system.cpu.dcache.writebacks::.writebacks      5263916                       # number of writebacks
system.cpu.dcache.writebacks::total           5263916                       # number of writebacks
system.cpu.dcache.demand_mshr_hits::.cpu.data      5260634                       # number of demand (read+write) MSHR hits
system.cpu.dcache.demand_mshr_hits::total      5260634                       # number of demand (read+write) MSHR hits
system.cpu.dcache.overall_mshr_hits::.cpu.data      5260634                       # number of overall MSHR hits
system.cpu.dcache.overall_mshr_hits::total      5260634                       # number of overall MSHR hits
system.cpu.dcache.demand_mshr_misses::.cpu.data      5266706                       # number of demand (read+write) MSHR misses
system.cpu.dcache.demand_mshr_misses::total      5266706                       # number of demand (read+write) MSHR misses
system.cpu.dcache.overall_mshr_misses::.cpu.data      5266739                       # number of overall MSHR misses
system.cpu.dcache.overall_mshr_misses::total      5266739                       # number of overall MSHR misses
system.cpu.dcache.demand_mshr_miss_latency::.cpu.data 540737377000                       # number of demand (read+write) MSHR miss cycles
system.cpu.dcache.demand_mshr_miss_latency::total 540737377000                       # number of demand (read+write) MSHR miss cycles
system.cpu.dcache.overall_mshr_miss_latency::.cpu.data 540740630000                       # number of overall MSHR miss cycles
system.cpu.dcache.overall_mshr_miss_latency::total 540740630000                       # number of overall MSHR miss cycles
system.cpu.dcache.demand_mshr_miss_rate::.cpu.data     0.060970                       # mshr miss rate for demand accesses
system.cpu.dcache.demand_mshr_miss_rate::total     0.060970                       # mshr miss rate for demand accesses
system.cpu.dcache.overall_mshr_miss_rate::.cpu.data     0.060970                       # mshr miss rate for overall accesses
system.cpu.dcache.overall_mshr_miss_rate::total     0.060970                       # mshr miss rate for overall accesses
system.cpu.dcache.demand_avg_mshr_miss_latency::.cpu.data 102670.887078                       # average overall mshr miss latency
system.cpu.dcache.demand_avg_mshr_miss_latency::total 102670.887078                       # average overall mshr miss latency
system.cpu.dcache.overall_avg_mshr_miss_latency::.cpu.data 102670.861419                       # average overall mshr miss latency
system.cpu.dcache.overall_avg_mshr_miss_latency::total 102670.861419                       # average overall mshr miss latency
system.cpu.dcache.replacements                5265716                       # number of replacements
system.cpu.dcache.ReadReq_hits::.cpu.data      2041652                       # number of ReadReq hits
system.cpu.dcache.ReadReq_hits::total         2041652                       # number of ReadReq hits
system.cpu.dcache.ReadReq_misses::.cpu.data         2135                       # number of ReadReq misses
system.cpu.dcache.ReadReq_misses::total          2135                       # number of ReadReq misses
system.cpu.dcache.ReadReq_miss_latency::.cpu.data     80460000                       # number of ReadReq miss cycles
system.cpu.dcache.ReadReq_miss_latency::total     80460000                       # number of ReadReq miss cycles
system.cpu.dcache.ReadReq_accesses::.cpu.data      2043787                       # number of ReadReq accesses(hits+misses)
system.cpu.dcache.ReadReq_accesses::total      2043787                       # number of ReadReq accesses(hits+misses)
system.cpu.dcache.ReadReq_miss_rate::.cpu.data     0.001045                       # miss rate for ReadReq accesses
system.cpu.dcache.ReadReq_miss_rate::total     0.001045                       # miss rate for ReadReq accesses
system.cpu.dcache.ReadReq_avg_miss_latency::.cpu.data 37686.182670                       # average ReadReq miss latency
system.cpu.dcache.ReadReq_avg_miss_latency::total 37686.182670                       # average ReadReq miss latency
system.cpu.dcache.ReadReq_mshr_hits::.cpu.data           39                       # number of ReadReq MSHR hits
system.cpu.dcache.ReadReq_mshr_hits::total           39                       # number of ReadReq MSHR hits
system.cpu.dcache.ReadReq_mshr_misses::.cpu.data         2096                       # number of ReadReq MSHR misses
system.cpu.dcache.ReadReq_mshr_misses::total         2096                       # number of ReadReq MSHR misses
system.cpu.dcache.ReadReq_mshr_miss_latency::.cpu.data     73408000                       # number of ReadReq MSHR miss cycles
system.cpu.dcache.ReadReq_mshr_miss_latency::total     73408000                       # number of ReadReq MSHR miss cycles
system.cpu.dcache.ReadReq_mshr_miss_rate::.cpu.data     0.001026                       # mshr miss rate for ReadReq accesses
system.cpu.dcache.ReadReq_mshr_miss_rate::total     0.001026                       # mshr miss rate for ReadReq accesses
system.cpu.dcache.ReadReq_avg_mshr_miss_latency::.cpu.data 35022.900763                       # average ReadReq mshr miss latency
system.cpu.dcache.ReadReq_avg_mshr_miss_latency::total 35022.900763                       # average ReadReq mshr miss latency
system.cpu.dcache.WriteReq_hits::.cpu.data     73813061                       # number of WriteReq hits
system.cpu.dcache.WriteReq_hits::total       73813061                       # number of WriteReq hits
system.cpu.dcache.WriteReq_misses::.cpu.data     10525205                       # number of WriteReq misses
system.cpu.dcache.WriteReq_misses::total     10525205                       # number of WriteReq misses
system.cpu.dcache.WriteReq_miss_latency::.cpu.data 1107318104999                       # number of WriteReq miss cycles
system.cpu.dcache.WriteReq_miss_latency::total 1107318104999                       # number of WriteReq miss cycles
system.cpu.dcache.WriteReq_accesses::.cpu.data     84338266                       # number of WriteReq accesses(hits+misses)
system.cpu.dcache.WriteReq_accesses::total     84338266                       # number of WriteReq accesses(hits+misses)
system.cpu.dcache.WriteReq_miss_rate::.cpu.data     0.124798                       # miss rate for WriteReq accesses
system.cpu.dcache.WriteReq_miss_rate::total     0.124798                       # miss rate for WriteReq accesses
system.cpu.dcache.WriteReq_avg_miss_latency::.cpu.data 105206.321872                       # average WriteReq miss latency
system.cpu.dcache.WriteReq_avg_miss_latency::total 105206.321872                       # average WriteReq miss latency
system.cpu.dcache.WriteReq_mshr_hits::.cpu.data      5260595                       # number of WriteReq MSHR hits
system.cpu.dcache.WriteReq_mshr_hits::total      5260595                       # number of WriteReq MSHR hits
system.cpu.dcache.WriteReq_mshr_misses::.cpu.data      5264610                       # number of WriteReq MSHR misses
system.cpu.dcache.WriteReq_mshr_misses::total      5264610                       # number of WriteReq MSHR misses
system.cpu.dcache.WriteReq_mshr_miss_latency::.cpu.data 540663969000                       # number of WriteReq MSHR miss cycles
system.cpu.dcache.WriteReq_mshr_miss_latency::total 540663969000                       # number of WriteReq MSHR miss cycles
system.cpu.dcache.WriteReq_mshr_miss_rate::.cpu.data     0.062423                       # mshr miss rate for WriteReq accesses
system.cpu.dcache.WriteReq_mshr_miss_rate::total     0.062423                       # mshr miss rate for WriteReq accesses
system.cpu.dcache.WriteReq_avg_mshr_miss_latency::.cpu.data 102697.819782                       # average WriteReq mshr miss latency
system.cpu.dcache.WriteReq_avg_mshr_miss_latency::total 102697.819782                       # average WriteReq mshr miss latency
system.cpu.dcache.SoftPFReq_hits::.cpu.data           33                       # number of SoftPFReq hits
system.cpu.dcache.SoftPFReq_hits::total            33                       # number of SoftPFReq hits
system.cpu.dcache.SoftPFReq_misses::.cpu.data           38                       # number of SoftPFReq misses
system.cpu.dcache.SoftPFReq_misses::total           38                       # number of SoftPFReq misses
system.cpu.dcache.SoftPFReq_accesses::.cpu.data           71                       # number of SoftPFReq accesses(hits+misses)
system.cpu.dcache.SoftPFReq_accesses::total           71                       # number of SoftPFReq accesses(hits+misses)
system.cpu.dcache.SoftPFReq_miss_rate::.cpu.data     0.535211                       # miss rate for SoftPFReq accesses
system.cpu.dcache.SoftPFReq_miss_rate::total     0.535211                       # miss rate for SoftPFReq accesses
system.cpu.dcache.SoftPFReq_mshr_misses::.cpu.data           33                       # number of SoftPFReq MSHR misses
system.cpu.dcache.SoftPFReq_mshr_misses::total           33                       # number of SoftPFReq MSHR misses
system.cpu.dcache.SoftPFReq_mshr_miss_latency::.cpu.data      3253000                       # number of SoftPFReq MSHR miss cycles
system.cpu.dcache.SoftPFReq_mshr_miss_latency::total      3253000                       # number of SoftPFReq MSHR miss cycles
system.cpu.dcache.SoftPFReq_mshr_miss_rate::.cpu.data     0.464789                       # mshr miss rate for SoftPFReq accesses
system.cpu.dcache.SoftPFReq_mshr_miss_rate::total     0.464789                       # mshr miss rate for SoftPFReq accesses
system.cpu.dcache.SoftPFReq_avg_mshr_miss_latency::.cpu.data 98575.757576                       # average SoftPFReq mshr miss latency
system.cpu.dcache.SoftPFReq_avg_mshr_miss_latency::total 98575.757576                       # average SoftPFReq mshr miss latency
system.cpu.dcache.LoadLockedReq_hits::.cpu.data           33                       # number of LoadLockedReq hits
system.cpu.dcache.LoadLockedReq_hits::total           33                       # number of LoadLockedReq hits
system.cpu.dcache.LoadLockedReq_misses::.cpu.data            1                       # number of LoadLockedReq misses
system.cpu.dcache.LoadLockedReq_misses::total            1                       # number of LoadLockedReq misses
system.cpu.dcache.LoadLockedReq_miss_latency::.cpu.data       123000                       # number of LoadLockedReq miss cycles
system.cpu.dcache.LoadLockedReq_miss_latency::total       123000                       # number of LoadLockedReq miss cycles
system.cpu.dcache.LoadLockedReq_accesses::.cpu.data           34                       # number of LoadLockedReq accesses(hits+misses)
system.cpu.dcache.LoadLockedReq_accesses::total           34                       # number of LoadLockedReq accesses(hits+misses)
system.cpu.dcache.LoadLockedReq_miss_rate::.cpu.data     0.029412                       # miss rate for LoadLockedReq accesses
system.cpu.dcache.LoadLockedReq_miss_rate::total     0.029412                       # miss rate for LoadLockedReq accesses
system.cpu.dcache.LoadLockedReq_avg_miss_latency::.cpu.data       123000                       # average LoadLockedReq miss latency
system.cpu.dcache.LoadLockedReq_avg_miss_latency::total       123000                       # average LoadLockedReq miss latency
system.cpu.dcache.LoadLockedReq_mshr_misses::.cpu.data            1                       # number of LoadLockedReq MSHR misses
system.cpu.dcache.LoadLockedReq_mshr_misses::total            1                       # number of LoadLockedReq MSHR misses
system.cpu.dcache.LoadLockedReq_mshr_miss_latency::.cpu.data       121000                       # number of LoadLockedReq MSHR miss cycles
system.cpu.dcache.LoadLockedReq_mshr_miss_latency::total       121000                       # number of LoadLockedReq MSHR miss cycles
system.cpu.dcache.LoadLockedReq_mshr_miss_rate::.cpu.data     0.029412                       # mshr miss rate for LoadLockedReq accesses
system.cpu.dcache.LoadLockedReq_mshr_miss_rate::total     0.029412                       # mshr miss rate for LoadLockedReq accesses
system.cpu.dcache.LoadLockedReq_avg_mshr_miss_latency::.cpu.data       121000                       # average LoadLockedReq mshr miss latency
system.cpu.dcache.LoadLockedReq_avg_mshr_miss_latency::total       121000                       # average LoadLockedReq mshr miss latency
system.cpu.dcache.StoreCondReq_hits::.cpu.data           34                       # number of StoreCondReq hits
system.cpu.dcache.StoreCondReq_hits::total           34                       # number of StoreCondReq hits
system.cpu.dcache.StoreCondReq_accesses::.cpu.data           34                       # number of StoreCondReq accesses(hits+misses)
system.cpu.dcache.StoreCondReq_accesses::total           34                       # number of StoreCondReq accesses(hits+misses)
system.cpu.dcache.tags.pwrStateResidencyTicks::UNDEFINED 704180676000                       # Cumulative time (in ticks) in various power states
system.cpu.dcache.tags.tagsinuse          1022.829930                       # Cycle average of tags in use
system.cpu.dcache.tags.total_refs            81121553                       # Total number of references to valid blocks.
system.cpu.dcache.tags.sampled_refs           5266740                       # Sample count of references to valid blocks.
system.cpu.dcache.tags.avg_refs             15.402612                       # Average number of references to valid blocks.
system.cpu.dcache.tags.warmup_cycle            223000                       # Cycle when the warmup percentage was hit.
system.cpu.dcache.tags.occ_blocks::.cpu.data  1022.829930                       # Average occupied blocks per requestor
system.cpu.dcache.tags.occ_percent::.cpu.data     0.998857                       # Average percentage of cache occupancy
system.cpu.dcache.tags.occ_percent::total     0.998857                       # Average percentage of cache occupancy
system.cpu.dcache.tags.occ_task_id_blocks::1024         1024                       # Occupied blocks per task id
system.cpu.dcache.tags.age_task_id_blocks_1024::0           76                       # Occupied blocks per task id
system.cpu.dcache.tags.age_task_id_blocks_1024::1          680                       # Occupied blocks per task id
system.cpu.dcache.tags.age_task_id_blocks_1024::2          268                       # Occupied blocks per task id
system.cpu.dcache.tags.occ_task_id_percent::1024            1                       # Percentage of cache occupancy per task id
system.cpu.dcache.tags.tag_accesses          91648932                       # Number of tag accesses
system.cpu.dcache.tags.data_accesses         91648932                       # Number of data accesses
system.cpu.itb.walker.pwrStateResidencyTicks::UNDEFINED 704180676000                       # Cumulative time (in ticks) in various power states
system.cpu.itb.stage2_mmu.stage2_tlb.walker.pwrStateResidencyTicks::UNDEFINED 704180676000                       # Cumulative time (in ticks) in various power states

---------- End Simulation Statistics   ----------
