
---------- Begin Simulation Statistics ----------
final_tick                               172777403000                       # Number of ticks from beginning of simulation (restored from checkpoints and never reset)
host_inst_rate                                 279327                       # Simulator instruction rate (inst/s)
host_mem_usage                                 709668                       # Number of bytes of host memory used
host_op_rate                                   279885                       # Simulator op (including micro ops) rate (op/s)
host_seconds                                   358.00                       # Real time elapsed on the host
host_tick_rate                              482614430                       # Simulator tick rate (ticks/s)
sim_freq                                 1000000000000                       # Frequency of simulated ticks
sim_insts                                   100000001                       # Number of instructions simulated
sim_ops                                     100199569                       # Number of ops (including micro ops) simulated
sim_seconds                                  0.172777                       # Number of seconds simulated
sim_ticks                                172777403000                       # Number of ticks simulated
system.cpu.branchPred.BTBCorrect                    0                       # Number of correct BTB predictions (this stat may not work properly.
system.cpu.branchPred.BTBHitPct             99.569431                       # BTB Hit Percentage
system.cpu.branchPred.BTBHits                 2104149                       # Number of BTB hits
system.cpu.branchPred.BTBLookups              2113248                       # Number of BTB lookups
system.cpu.branchPred.RASInCorrect                  6                       # Number of incorrect RAS predictions.
system.cpu.branchPred.condIncorrect             83520                       # Number of conditional branches incorrect
system.cpu.branchPred.condPredicted           3635531                       # Number of conditional branches predicted
system.cpu.branchPred.indirectHits                297                       # Number of indirect target hits.
system.cpu.branchPred.indirectLookups             793                       # Number of indirect predictor lookups.
system.cpu.branchPred.indirectMisses              496                       # Number of indirect misses.
system.cpu.branchPred.lookups                 4389887                       # Number of BP lookups
system.cpu.branchPred.usedRAS                   66042                       # Number of times the RAS was used to get a target.
system.cpu.branchPredindirectMispredicted          168                       # Number of mispredicted indirect branches.
system.cpu.committedInsts                   100000001                       # Number of instructions committed
system.cpu.committedOps                     100199569                       # Number of ops (including micro ops) committed
system.cpu.cpi                               1.727774                       # CPI: cycles per instruction
system.cpu.discardedOps                        197095                       # Number of ops (including micro ops) which were discarded before commit
system.cpu.dtb.accesses                             0                       # DTB accesses
system.cpu.dtb.align_faults                         0                       # Number of TLB faults due to alignment restrictions
system.cpu.dtb.domain_faults                        0                       # Number of TLB faults due to domain restrictions
system.cpu.dtb.flush_entries                        0                       # Number of entries that have been flushed from TLB
system.cpu.dtb.flush_tlb                            0                       # Number of times complete TLB was flushed
system.cpu.dtb.flush_tlb_asid                       0                       # Number of times TLB was flushed by ASID
system.cpu.dtb.flush_tlb_mva                        0                       # Number of times TLB was flushed by MVA
system.cpu.dtb.flush_tlb_mva_asid                   0                       # Number of times TLB was flushed by MVA & ASID
system.cpu.dtb.hits                                 0                       # DTB hits
system.cpu.dtb.inst_accesses                        0                       # ITB inst accesses
system.cpu.dtb.inst_hits                            0                       # ITB inst hits
system.cpu.dtb.inst_misses                          0                       # ITB inst misses
system.cpu.dtb.misses                               0                       # DTB misses
system.cpu.dtb.perms_faults                         0                       # Number of TLB faults due to permissions restrictions
system.cpu.dtb.prefetch_faults                      0                       # Number of TLB faults due to prefetch
system.cpu.dtb.read_accesses                        0                       # DTB read accesses
system.cpu.dtb.read_hits                            0                       # DTB read hits
system.cpu.dtb.read_misses                          0                       # DTB read misses
system.cpu.dtb.stage2_mmu.stage2_tlb.accesses            0                       # DTB accesses
system.cpu.dtb.stage2_mmu.stage2_tlb.align_faults            0                       # Number of TLB faults due to alignment restrictions
system.cpu.dtb.stage2_mmu.stage2_tlb.domain_faults            0                       # Number of TLB faults due to domain restrictions
system.cpu.dtb.stage2_mmu.stage2_tlb.flush_entries            0                       # Number of entries that have been flushed from TLB
system.cpu.dtb.stage2_mmu.stage2_tlb.flush_tlb            0                       # Number of times complete TLB was flushed
system.cpu.dtb.stage2_mmu.stage2_tlb.flush_tlb_asid            0                       # Number of times TLB was flushed by ASID
system.cpu.dtb.stage2_mmu.stage2_tlb.flush_tlb_mva            0                       # Number of times TLB was flushed by MVA
system.cpu.dtb.stage2_mmu.stage2_tlb.flush_tlb_mva_asid            0                       # Number of times TLB was flushed by MVA & ASID
system.cpu.dtb.stage2_mmu.stage2_tlb.hits            0                       # DTB hits
system.cpu.dtb.stage2_mmu.stage2_tlb.inst_accesses            0                       # ITB inst accesses
system.cpu.dtb.stage2_mmu.stage2_tlb.inst_hits            0                       # ITB inst hits
system.cpu.dtb.stage2_mmu.stage2_tlb.inst_misses            0                       # ITB inst misses
system.cpu.dtb.stage2_mmu.stage2_tlb.misses            0                       # DTB misses
system.cpu.dtb.stage2_mmu.stage2_tlb.perms_faults            0                       # Number of TLB faults due to permissions restrictions
system.cpu.dtb.stage2_mmu.stage2_tlb.prefetch_faults            0                       # Number of TLB faults due to prefetch
system.cpu.dtb.stage2_mmu.stage2_tlb.read_accesses            0                       # DTB read accesses
system.cpu.dtb.stage2_mmu.stage2_tlb.read_hits            0                       # DTB read hits
system.cpu.dtb.stage2_mmu.stage2_tlb.read_misses            0                       # DTB read misses
system.cpu.dtb.stage2_mmu.stage2_tlb.walker.walkRequestOrigin_Requested::Data            0                       # Table walker requests started/completed, data/inst
system.cpu.dtb.stage2_mmu.stage2_tlb.walker.walkRequestOrigin_Requested::Inst            0                       # Table walker requests started/completed, data/inst
system.cpu.dtb.stage2_mmu.stage2_tlb.walker.walkRequestOrigin_Requested::total            0                       # Table walker requests started/completed, data/inst
system.cpu.dtb.stage2_mmu.stage2_tlb.walker.walkRequestOrigin_Completed::Data            0                       # Table walker requests started/completed, data/inst
system.cpu.dtb.stage2_mmu.stage2_tlb.walker.walkRequestOrigin_Completed::Inst            0                       # Table walker requests started/completed, data/inst
system.cpu.dtb.stage2_mmu.stage2_tlb.walker.walkRequestOrigin_Completed::total            0                       # Table walker requests started/completed, data/inst
system.cpu.dtb.stage2_mmu.stage2_tlb.walker.walkRequestOrigin::total            0                       # Table walker requests started/completed, data/inst
system.cpu.dtb.stage2_mmu.stage2_tlb.walker.walks            0                       # Table walker walks requested
system.cpu.dtb.stage2_mmu.stage2_tlb.write_accesses            0                       # DTB write accesses
system.cpu.dtb.stage2_mmu.stage2_tlb.write_hits            0                       # DTB write hits
system.cpu.dtb.stage2_mmu.stage2_tlb.write_misses            0                       # DTB write misses
system.cpu.dtb.walker.walkRequestOrigin_Requested::Data            0                       # Table walker requests started/completed, data/inst
system.cpu.dtb.walker.walkRequestOrigin_Requested::Inst            0                       # Table walker requests started/completed, data/inst
system.cpu.dtb.walker.walkRequestOrigin_Requested::total            0                       # Table walker requests started/completed, data/inst
system.cpu.dtb.walker.walkRequestOrigin_Completed::Data            0                       # Table walker requests started/completed, data/inst
system.cpu.dtb.walker.walkRequestOrigin_Completed::Inst            0                       # Table walker requests started/completed, data/inst
system.cpu.dtb.walker.walkRequestOrigin_Completed::total            0                       # Table walker requests started/completed, data/inst
system.cpu.dtb.walker.walkRequestOrigin::total            0                       # Table walker requests started/completed, data/inst
system.cpu.dtb.walker.walks                         0                       # Table walker walks requested
system.cpu.dtb.write_accesses                       0                       # DTB write accesses
system.cpu.dtb.write_hits                           0                       # DTB write hits
system.cpu.dtb.write_misses                         0                       # DTB write misses
system.cpu.fetch2.amo_instructions                  0                       # Number of memory atomic instructions successfully decoded
system.cpu.fetch2.fp_instructions                   0                       # Number of floating point instructions successfully decoded
system.cpu.fetch2.int_instructions           42628565                       # Number of integer instructions successfully decoded
system.cpu.fetch2.load_instructions          43485624                       # Number of memory load instructions successfully decoded
system.cpu.fetch2.store_instructions         11033746                       # Number of memory store instructions successfully decoded
system.cpu.fetch2.vec_instructions                  0                       # Number of SIMD instructions successfully decoded
system.cpu.idleCycles                        39311698                       # Total number of cycles that the object has spent stopped
system.cpu.ipc                               0.578779                       # IPC: instructions per cycle
system.cpu.itb.accesses                             0                       # DTB accesses
system.cpu.itb.align_faults                         0                       # Number of TLB faults due to alignment restrictions
system.cpu.itb.domain_faults                        0                       # Number of TLB faults due to domain restrictions
system.cpu.itb.flush_entries                        0                       # Number of entries that have been flushed from TLB
system.cpu.itb.flush_tlb                            0                       # Number of times complete TLB was flushed
system.cpu.itb.flush_tlb_asid                       0                       # Number of times TLB was flushed by ASID
system.cpu.itb.flush_tlb_mva                        0                       # Number of times TLB was flushed by MVA
system.cpu.itb.flush_tlb_mva_asid                   0                       # Number of times TLB was flushed by MVA & ASID
system.cpu.itb.hits                                 0                       # DTB hits
system.cpu.itb.inst_accesses                        0                       # ITB inst accesses
system.cpu.itb.inst_hits                            0                       # ITB inst hits
system.cpu.itb.inst_misses                          0                       # ITB inst misses
system.cpu.itb.misses                               0                       # DTB misses
system.cpu.itb.perms_faults                         0                       # Number of TLB faults due to permissions restrictions
system.cpu.itb.prefetch_faults                      0                       # Number of TLB faults due to prefetch
system.cpu.itb.read_accesses                        0                       # DTB read accesses
system.cpu.itb.read_hits                            0                       # DTB read hits
system.cpu.itb.read_misses                          0                       # DTB read misses
system.cpu.itb.stage2_mmu.stage2_tlb.accesses            0                       # DTB accesses
system.cpu.itb.stage2_mmu.stage2_tlb.align_faults            0                       # Number of TLB faults due to alignment restrictions
system.cpu.itb.stage2_mmu.stage2_tlb.domain_faults            0                       # Number of TLB faults due to domain restrictions
system.cpu.itb.stage2_mmu.stage2_tlb.flush_entries            0                       # Number of entries that have been flushed from TLB
system.cpu.itb.stage2_mmu.stage2_tlb.flush_tlb            0                       # Number of times complete TLB was flushed
system.cpu.itb.stage2_mmu.stage2_tlb.flush_tlb_asid            0                       # Number of times TLB was flushed by ASID
system.cpu.itb.stage2_mmu.stage2_tlb.flush_tlb_mva            0                       # Number of times TLB was flushed by MVA
system.cpu.itb.stage2_mmu.stage2_tlb.flush_tlb_mva_asid            0                       # Number of times TLB was flushed by MVA & ASID
system.cpu.itb.stage2_mmu.stage2_tlb.hits            0                       # DTB hits
system.cpu.itb.stage2_mmu.stage2_tlb.inst_accesses            0                       # ITB inst accesses
system.cpu.itb.stage2_mmu.stage2_tlb.inst_hits            0                       # ITB inst hits
system.cpu.itb.stage2_mmu.stage2_tlb.inst_misses            0                       # ITB inst misses
system.cpu.itb.stage2_mmu.stage2_tlb.misses            0                       # DTB misses
system.cpu.itb.stage2_mmu.stage2_tlb.perms_faults            0                       # Number of TLB faults due to permissions restrictions
system.cpu.itb.stage2_mmu.stage2_tlb.prefetch_faults            0                       # Number of TLB faults due to prefetch
system.cpu.itb.stage2_mmu.stage2_tlb.read_accesses            0                       # DTB read accesses
system.cpu.itb.stage2_mmu.stage2_tlb.read_hits            0                       # DTB read hits
system.cpu.itb.stage2_mmu.stage2_tlb.read_misses            0                       # DTB read misses
system.cpu.itb.stage2_mmu.stage2_tlb.walker.walkRequestOrigin_Requested::Data            0                       # Table walker requests started/completed, data/inst
system.cpu.itb.stage2_mmu.stage2_tlb.walker.walkRequestOrigin_Requested::Inst            0                       # Table walker requests started/completed, data/inst
system.cpu.itb.stage2_mmu.stage2_tlb.walker.walkRequestOrigin_Requested::total            0                       # Table walker requests started/completed, data/inst
system.cpu.itb.stage2_mmu.stage2_tlb.walker.walkRequestOrigin_Completed::Data            0                       # Table walker requests started/completed, data/inst
system.cpu.itb.stage2_mmu.stage2_tlb.walker.walkRequestOrigin_Completed::Inst            0                       # Table walker requests started/completed, data/inst
system.cpu.itb.stage2_mmu.stage2_tlb.walker.walkRequestOrigin_Completed::total            0                       # Table walker requests started/completed, data/inst
system.cpu.itb.stage2_mmu.stage2_tlb.walker.walkRequestOrigin::total            0                       # Table walker requests started/completed, data/inst
system.cpu.itb.stage2_mmu.stage2_tlb.walker.walks            0                       # Table walker walks requested
system.cpu.itb.stage2_mmu.stage2_tlb.write_accesses            0                       # DTB write accesses
system.cpu.itb.stage2_mmu.stage2_tlb.write_hits            0                       # DTB write hits
system.cpu.itb.stage2_mmu.stage2_tlb.write_misses            0                       # DTB write misses
system.cpu.itb.walker.walkRequestOrigin_Requested::Data            0                       # Table walker requests started/completed, data/inst
system.cpu.itb.walker.walkRequestOrigin_Requested::Inst            0                       # Table walker requests started/completed, data/inst
system.cpu.itb.walker.walkRequestOrigin_Requested::total            0                       # Table walker requests started/completed, data/inst
system.cpu.itb.walker.walkRequestOrigin_Completed::Data            0                       # Table walker requests started/completed, data/inst
system.cpu.itb.walker.walkRequestOrigin_Completed::Inst            0                       # Table walker requests started/completed, data/inst
system.cpu.itb.walker.walkRequestOrigin_Completed::total            0                       # Table walker requests started/completed, data/inst
system.cpu.itb.walker.walkRequestOrigin::total            0                       # Table walker requests started/completed, data/inst
system.cpu.itb.walker.walks                         0                       # Table walker walks requested
system.cpu.itb.write_accesses                       0                       # DTB write accesses
system.cpu.itb.write_hits                           0                       # DTB write hits
system.cpu.itb.write_misses                         0                       # DTB write misses
system.cpu.numCycles                        172777403                       # number of cpu cycles simulated
system.cpu.numFetchSuspends                         0                       # Number of times Execute suspended instruction fetching
system.cpu.numWorkItemsCompleted                    0                       # number of work items this cpu completed
system.cpu.numWorkItemsStarted                      0                       # number of work items this cpu started
system.cpu.op_class_0::No_OpClass                   0      0.00%      0.00% # Class of committed instruction
system.cpu.op_class_0::IntAlu                46443154     46.35%     46.35% # Class of committed instruction
system.cpu.op_class_0::IntMult                  20720      0.02%     46.37% # Class of committed instruction
system.cpu.op_class_0::IntDiv                       0      0.00%     46.37% # Class of committed instruction
system.cpu.op_class_0::FloatAdd                     0      0.00%     46.37% # Class of committed instruction
system.cpu.op_class_0::FloatCmp                     0      0.00%     46.37% # Class of committed instruction
system.cpu.op_class_0::FloatCvt                     0      0.00%     46.37% # Class of committed instruction
system.cpu.op_class_0::FloatMult                    0      0.00%     46.37% # Class of committed instruction
system.cpu.op_class_0::FloatMultAcc                 0      0.00%     46.37% # Class of committed instruction
system.cpu.op_class_0::FloatDiv                     0      0.00%     46.37% # Class of committed instruction
system.cpu.op_class_0::FloatMisc                    0      0.00%     46.37% # Class of committed instruction
system.cpu.op_class_0::FloatSqrt                    0      0.00%     46.37% # Class of committed instruction
system.cpu.op_class_0::SimdAdd                      0      0.00%     46.37% # Class of committed instruction
system.cpu.op_class_0::SimdAddAcc                   0      0.00%     46.37% # Class of committed instruction
system.cpu.op_class_0::SimdAlu                      0      0.00%     46.37% # Class of committed instruction
system.cpu.op_class_0::SimdCmp                      0      0.00%     46.37% # Class of committed instruction
system.cpu.op_class_0::SimdCvt                      0      0.00%     46.37% # Class of committed instruction
system.cpu.op_class_0::SimdMisc                     0      0.00%     46.37% # Class of committed instruction
system.cpu.op_class_0::SimdMult                     0      0.00%     46.37% # Class of committed instruction
system.cpu.op_class_0::SimdMultAcc                  0      0.00%     46.37% # Class of committed instruction
system.cpu.op_class_0::SimdShift                    0      0.00%     46.37% # Class of committed instruction
system.cpu.op_class_0::SimdShiftAcc                 0      0.00%     46.37% # Class of committed instruction
system.cpu.op_class_0::SimdDiv                      0      0.00%     46.37% # Class of committed instruction
system.cpu.op_class_0::SimdSqrt                     0      0.00%     46.37% # Class of committed instruction
system.cpu.op_class_0::SimdFloatAdd                 0      0.00%     46.37% # Class of committed instruction
system.cpu.op_class_0::SimdFloatAlu                 0      0.00%     46.37% # Class of committed instruction
system.cpu.op_class_0::SimdFloatCmp                 0      0.00%     46.37% # Class of committed instruction
system.cpu.op_class_0::SimdFloatCvt                 0      0.00%     46.37% # Class of committed instruction
system.cpu.op_class_0::SimdFloatDiv                 0      0.00%     46.37% # Class of committed instruction
system.cpu.op_class_0::SimdFloatMisc                1      0.00%     46.37% # Class of committed instruction
system.cpu.op_class_0::SimdFloatMult                0      0.00%     46.37% # Class of committed instruction
system.cpu.op_class_0::SimdFloatMultAcc             0      0.00%     46.37% # Class of committed instruction
system.cpu.op_class_0::SimdFloatSqrt                0      0.00%     46.37% # Class of committed instruction
system.cpu.op_class_0::SimdReduceAdd                0      0.00%     46.37% # Class of committed instruction
system.cpu.op_class_0::SimdReduceAlu                0      0.00%     46.37% # Class of committed instruction
system.cpu.op_class_0::SimdReduceCmp                0      0.00%     46.37% # Class of committed instruction
system.cpu.op_class_0::SimdFloatReduceAdd            0      0.00%     46.37% # Class of committed instruction
system.cpu.op_class_0::SimdFloatReduceCmp            0      0.00%     46.37% # Class of committed instruction
system.cpu.op_class_0::SimdAes                      0      0.00%     46.37% # Class of committed instruction
system.cpu.op_class_0::SimdAesMix                   0      0.00%     46.37% # Class of committed instruction
system.cpu.op_class_0::SimdSha1Hash                 0      0.00%     46.37% # Class of committed instruction
system.cpu.op_class_0::SimdSha1Hash2                0      0.00%     46.37% # Class of committed instruction
system.cpu.op_class_0::SimdSha256Hash               0      0.00%     46.37% # Class of committed instruction
system.cpu.op_class_0::SimdSha256Hash2              0      0.00%     46.37% # Class of committed instruction
system.cpu.op_class_0::SimdShaSigma2                0      0.00%     46.37% # Class of committed instruction
system.cpu.op_class_0::SimdShaSigma3                0      0.00%     46.37% # Class of committed instruction
system.cpu.op_class_0::SimdPredAlu                  0      0.00%     46.37% # Class of committed instruction
system.cpu.op_class_0::MemRead               42756988     42.67%     89.04% # Class of committed instruction
system.cpu.op_class_0::MemWrite              10978706     10.96%    100.00% # Class of committed instruction
system.cpu.op_class_0::FloatMemRead                 0      0.00%    100.00% # Class of committed instruction
system.cpu.op_class_0::FloatMemWrite                0      0.00%    100.00% # Class of committed instruction
system.cpu.op_class_0::IprAccess                    0      0.00%    100.00% # Class of committed instruction
system.cpu.op_class_0::InstPrefetch                 0      0.00%    100.00% # Class of committed instruction
system.cpu.op_class_0::total                100199569                       # Class of committed instruction
system.cpu.tickCycles                       133465705                       # Number of cycles that the object actually ticked
system.cpu.workload.numSyscalls                    85                       # Number of system calls
system.membus.snoop_filter.hit_multi_requests            0                       # Number of requests hitting in the snoop filter with multiple (>1) holders of the requested data.
system.membus.snoop_filter.hit_multi_snoops            0                       # Number of snoops hitting in the snoop filter with multiple (>1) holders of the requested data.
system.membus.snoop_filter.hit_single_requests       278927                       # Number of requests hitting in the snoop filter with a single holder of the requested data.
system.membus.snoop_filter.hit_single_snoops            0                       # Number of snoops hitting in the snoop filter with a single holder of the requested data.
system.membus.snoop_filter.tot_requests        566447                       # Total number of requests made to the snoop filter.
system.membus.snoop_filter.tot_snoops               0                       # Total number of snoops made to the snoop filter.
system.tol2bus.snoop_filter.hit_multi_requests         1770                       # Number of requests hitting in the snoop filter with multiple (>1) holders of the requested data.
system.tol2bus.snoop_filter.hit_multi_snoops            1                       # Number of snoops hitting in the snoop filter with multiple (>1) holders of the requested data.
system.tol2bus.snoop_filter.hit_single_requests      1056964                       # Number of requests hitting in the snoop filter with a single holder of the requested data.
system.tol2bus.snoop_filter.hit_single_snoops         3508                       # Number of snoops hitting in the snoop filter with a single holder of the requested data.
system.tol2bus.snoop_filter.tot_requests      2114848                       # Total number of requests made to the snoop filter.
system.tol2bus.snoop_filter.tot_snoops           3509                       # Total number of snoops made to the snoop filter.
system.membus.pwrStateResidencyTicks::UNDEFINED 172777403000                       # Cumulative time (in ticks) in various power states
system.membus.trans_dist::ReadResp             110201                       # Transaction distribution
system.membus.trans_dist::WritebackDirty       199977                       # Transaction distribution
system.membus.trans_dist::CleanEvict            78941                       # Transaction distribution
system.membus.trans_dist::ReadExReq            177328                       # Transaction distribution
system.membus.trans_dist::ReadExResp           177328                       # Transaction distribution
system.membus.trans_dist::ReadSharedReq        110201                       # Transaction distribution
system.membus.pkt_count_system.l2.mem_side::system.mem_ctrls.port       853976                       # Packet count per connected master and slave (bytes)
system.membus.pkt_count::total                 853976                       # Packet count per connected master and slave (bytes)
system.membus.pkt_size_system.l2.mem_side::system.mem_ctrls.port     31200384                       # Cumulative packet size per connected master and slave (bytes)
system.membus.pkt_size::total                31200384                       # Cumulative packet size per connected master and slave (bytes)
system.membus.snoops                                0                       # Total snoops (count)
system.membus.snoopTraffic                          0                       # Total snoop traffic (bytes)
system.membus.snoop_fanout::samples            287529                       # Request fanout histogram
system.membus.snoop_fanout::mean                    0                       # Request fanout histogram
system.membus.snoop_fanout::stdev                   0                       # Request fanout histogram
system.membus.snoop_fanout::underflows              0      0.00%      0.00% # Request fanout histogram
system.membus.snoop_fanout::0                  287529    100.00%    100.00% # Request fanout histogram
system.membus.snoop_fanout::1                       0      0.00%    100.00% # Request fanout histogram
system.membus.snoop_fanout::overflows               0      0.00%    100.00% # Request fanout histogram
system.membus.snoop_fanout::min_value               0                       # Request fanout histogram
system.membus.snoop_fanout::max_value               0                       # Request fanout histogram
system.membus.snoop_fanout::total              287529                       # Request fanout histogram
system.membus.respLayer1.occupancy         1565261750                       # Layer occupancy (ticks)
system.membus.respLayer1.utilization              0.9                       # Layer utilization (%)
system.membus.reqLayer0.occupancy          1366355000                       # Layer occupancy (ticks)
system.membus.reqLayer0.utilization               0.8                       # Layer utilization (%)
system.tol2bus.pwrStateResidencyTicks::UNDEFINED 172777403000                       # Cumulative time (in ticks) in various power states
system.tol2bus.trans_dist::ReadResp            673620                       # Transaction distribution
system.tol2bus.trans_dist::WritebackDirty      1146879                       # Transaction distribution
system.tol2bus.trans_dist::WritebackClean          465                       # Transaction distribution
system.tol2bus.trans_dist::CleanEvict          191758                       # Transaction distribution
system.tol2bus.trans_dist::ReadExReq           384266                       # Transaction distribution
system.tol2bus.trans_dist::ReadExResp          384266                       # Transaction distribution
system.tol2bus.trans_dist::ReadCleanReq           877                       # Transaction distribution
system.tol2bus.trans_dist::ReadSharedReq       672743                       # Transaction distribution
system.tol2bus.pkt_count_system.cpu.icache.mem_side::system.l2.cpu_side         2219                       # Packet count per connected master and slave (bytes)
system.tol2bus.pkt_count_system.cpu.dcache.mem_side::system.l2.cpu_side      3170515                       # Packet count per connected master and slave (bytes)
system.tol2bus.pkt_count::total               3172734                       # Packet count per connected master and slave (bytes)
system.tol2bus.pkt_size_system.cpu.icache.mem_side::system.l2.cpu_side        85888                       # Cumulative packet size per connected master and slave (bytes)
system.tol2bus.pkt_size_system.cpu.dcache.mem_side::system.l2.cpu_side    128250304                       # Cumulative packet size per connected master and slave (bytes)
system.tol2bus.pkt_size::total              128336192                       # Cumulative packet size per connected master and slave (bytes)
system.tol2bus.snoops                          282140                       # Total snoops (count)
system.tol2bus.snoopTraffic                  12798528                       # Total snoop traffic (bytes)
system.tol2bus.snoop_fanout::samples          1340026                       # Request fanout histogram
system.tol2bus.snoop_fanout::mean            0.003942                       # Request fanout histogram
system.tol2bus.snoop_fanout::stdev           0.062671                       # Request fanout histogram
system.tol2bus.snoop_fanout::underflows             0      0.00%      0.00% # Request fanout histogram
system.tol2bus.snoop_fanout::0                1334745     99.61%     99.61% # Request fanout histogram
system.tol2bus.snoop_fanout::1                   5280      0.39%    100.00% # Request fanout histogram
system.tol2bus.snoop_fanout::2                      1      0.00%    100.00% # Request fanout histogram
system.tol2bus.snoop_fanout::overflows              0      0.00%    100.00% # Request fanout histogram
system.tol2bus.snoop_fanout::min_value              0                       # Request fanout histogram
system.tol2bus.snoop_fanout::max_value              2                       # Request fanout histogram
system.tol2bus.snoop_fanout::total            1340026                       # Request fanout histogram
system.tol2bus.reqLayer0.occupancy         4009582000                       # Layer occupancy (ticks)
system.tol2bus.reqLayer0.utilization              2.3                       # Layer utilization (%)
system.tol2bus.respLayer1.occupancy        3171032994                       # Layer occupancy (ticks)
system.tol2bus.respLayer1.utilization             1.8                       # Layer utilization (%)
system.tol2bus.respLayer0.occupancy           2631000                       # Layer occupancy (ticks)
system.tol2bus.respLayer0.utilization             0.0                       # Layer utilization (%)
system.voltage_domain.voltage                       1                       # Voltage in Volts
system.clk_domain.clock                          1000                       # Clock period in ticks
system.l2.pwrStateResidencyTicks::UNDEFINED 172777403000                       # Cumulative time (in ticks) in various power states
system.l2.demand_hits::.cpu.inst                  187                       # number of demand (read+write) hits
system.l2.demand_hits::.cpu.data               770165                       # number of demand (read+write) hits
system.l2.demand_hits::total                   770352                       # number of demand (read+write) hits
system.l2.overall_hits::.cpu.inst                 187                       # number of overall hits
system.l2.overall_hits::.cpu.data              770165                       # number of overall hits
system.l2.overall_hits::total                  770352                       # number of overall hits
system.l2.demand_misses::.cpu.inst                690                       # number of demand (read+write) misses
system.l2.demand_misses::.cpu.data             286844                       # number of demand (read+write) misses
system.l2.demand_misses::total                 287534                       # number of demand (read+write) misses
system.l2.overall_misses::.cpu.inst               690                       # number of overall misses
system.l2.overall_misses::.cpu.data            286844                       # number of overall misses
system.l2.overall_misses::total                287534                       # number of overall misses
system.l2.demand_miss_latency::.cpu.inst     67091000                       # number of demand (read+write) miss cycles
system.l2.demand_miss_latency::.cpu.data  30653911000                       # number of demand (read+write) miss cycles
system.l2.demand_miss_latency::total      30721002000                       # number of demand (read+write) miss cycles
system.l2.overall_miss_latency::.cpu.inst     67091000                       # number of overall miss cycles
system.l2.overall_miss_latency::.cpu.data  30653911000                       # number of overall miss cycles
system.l2.overall_miss_latency::total     30721002000                       # number of overall miss cycles
system.l2.demand_accesses::.cpu.inst              877                       # number of demand (read+write) accesses
system.l2.demand_accesses::.cpu.data          1057009                       # number of demand (read+write) accesses
system.l2.demand_accesses::total              1057886                       # number of demand (read+write) accesses
system.l2.overall_accesses::.cpu.inst             877                       # number of overall (read+write) accesses
system.l2.overall_accesses::.cpu.data         1057009                       # number of overall (read+write) accesses
system.l2.overall_accesses::total             1057886                       # number of overall (read+write) accesses
system.l2.demand_miss_rate::.cpu.inst        0.786773                       # miss rate for demand accesses
system.l2.demand_miss_rate::.cpu.data        0.271373                       # miss rate for demand accesses
system.l2.demand_miss_rate::total            0.271801                       # miss rate for demand accesses
system.l2.overall_miss_rate::.cpu.inst       0.786773                       # miss rate for overall accesses
system.l2.overall_miss_rate::.cpu.data       0.271373                       # miss rate for overall accesses
system.l2.overall_miss_rate::total           0.271801                       # miss rate for overall accesses
system.l2.demand_avg_miss_latency::.cpu.inst 97233.333333                       # average overall miss latency
system.l2.demand_avg_miss_latency::.cpu.data 106866.139783                       # average overall miss latency
system.l2.demand_avg_miss_latency::total 106843.023782                       # average overall miss latency
system.l2.overall_avg_miss_latency::.cpu.inst 97233.333333                       # average overall miss latency
system.l2.overall_avg_miss_latency::.cpu.data 106866.139783                       # average overall miss latency
system.l2.overall_avg_miss_latency::total 106843.023782                       # average overall miss latency
system.l2.blocked_cycles::no_mshrs                  0                       # number of cycles access was blocked
system.l2.blocked_cycles::no_targets                0                       # number of cycles access was blocked
system.l2.blocked::no_mshrs                         0                       # number of cycles access was blocked
system.l2.blocked::no_targets                       0                       # number of cycles access was blocked
system.l2.avg_blocked_cycles::no_mshrs            nan                       # average number of cycles each access was blocked
system.l2.avg_blocked_cycles::no_targets          nan                       # average number of cycles each access was blocked
system.l2.writebacks::.writebacks              199977                       # number of writebacks
system.l2.writebacks::total                    199977                       # number of writebacks
system.l2.demand_mshr_hits::.cpu.data               5                       # number of demand (read+write) MSHR hits
system.l2.demand_mshr_hits::total                   5                       # number of demand (read+write) MSHR hits
system.l2.overall_mshr_hits::.cpu.data              5                       # number of overall MSHR hits
system.l2.overall_mshr_hits::total                  5                       # number of overall MSHR hits
system.l2.demand_mshr_misses::.cpu.inst           690                       # number of demand (read+write) MSHR misses
system.l2.demand_mshr_misses::.cpu.data        286839                       # number of demand (read+write) MSHR misses
system.l2.demand_mshr_misses::total            287529                       # number of demand (read+write) MSHR misses
system.l2.overall_mshr_misses::.cpu.inst          690                       # number of overall MSHR misses
system.l2.overall_mshr_misses::.cpu.data       286839                       # number of overall MSHR misses
system.l2.overall_mshr_misses::total           287529                       # number of overall MSHR misses
system.l2.demand_mshr_miss_latency::.cpu.inst     53291000                       # number of demand (read+write) MSHR miss cycles
system.l2.demand_mshr_miss_latency::.cpu.data  24916720000                       # number of demand (read+write) MSHR miss cycles
system.l2.demand_mshr_miss_latency::total  24970011000                       # number of demand (read+write) MSHR miss cycles
system.l2.overall_mshr_miss_latency::.cpu.inst     53291000                       # number of overall MSHR miss cycles
system.l2.overall_mshr_miss_latency::.cpu.data  24916720000                       # number of overall MSHR miss cycles
system.l2.overall_mshr_miss_latency::total  24970011000                       # number of overall MSHR miss cycles
system.l2.demand_mshr_miss_rate::.cpu.inst     0.786773                       # mshr miss rate for demand accesses
system.l2.demand_mshr_miss_rate::.cpu.data     0.271369                       # mshr miss rate for demand accesses
system.l2.demand_mshr_miss_rate::total       0.271796                       # mshr miss rate for demand accesses
system.l2.overall_mshr_miss_rate::.cpu.inst     0.786773                       # mshr miss rate for overall accesses
system.l2.overall_mshr_miss_rate::.cpu.data     0.271369                       # mshr miss rate for overall accesses
system.l2.overall_mshr_miss_rate::total      0.271796                       # mshr miss rate for overall accesses
system.l2.demand_avg_mshr_miss_latency::.cpu.inst 77233.333333                       # average overall mshr miss latency
system.l2.demand_avg_mshr_miss_latency::.cpu.data 86866.569748                       # average overall mshr miss latency
system.l2.demand_avg_mshr_miss_latency::total 86843.452313                       # average overall mshr miss latency
system.l2.overall_avg_mshr_miss_latency::.cpu.inst 77233.333333                       # average overall mshr miss latency
system.l2.overall_avg_mshr_miss_latency::.cpu.data 86866.569748                       # average overall mshr miss latency
system.l2.overall_avg_mshr_miss_latency::total 86843.452313                       # average overall mshr miss latency
system.l2.replacements                         282140                       # number of replacements
system.l2.WritebackDirty_hits::.writebacks       946902                       # number of WritebackDirty hits
system.l2.WritebackDirty_hits::total           946902                       # number of WritebackDirty hits
system.l2.WritebackDirty_accesses::.writebacks       946902                       # number of WritebackDirty accesses(hits+misses)
system.l2.WritebackDirty_accesses::total       946902                       # number of WritebackDirty accesses(hits+misses)
system.l2.WritebackClean_hits::.writebacks          453                       # number of WritebackClean hits
system.l2.WritebackClean_hits::total              453                       # number of WritebackClean hits
system.l2.WritebackClean_accesses::.writebacks          453                       # number of WritebackClean accesses(hits+misses)
system.l2.WritebackClean_accesses::total          453                       # number of WritebackClean accesses(hits+misses)
system.l2.CleanEvict_mshr_misses::.writebacks          287                       # number of CleanEvict MSHR misses
system.l2.CleanEvict_mshr_misses::total           287                       # number of CleanEvict MSHR misses
system.l2.CleanEvict_mshr_miss_rate::.writebacks          inf                       # mshr miss rate for CleanEvict accesses
system.l2.CleanEvict_mshr_miss_rate::total          inf                       # mshr miss rate for CleanEvict accesses
system.l2.ReadExReq_hits::.cpu.data            206938                       # number of ReadExReq hits
system.l2.ReadExReq_hits::total                206938                       # number of ReadExReq hits
system.l2.ReadExReq_misses::.cpu.data          177328                       # number of ReadExReq misses
system.l2.ReadExReq_misses::total              177328                       # number of ReadExReq misses
system.l2.ReadExReq_miss_latency::.cpu.data  19343936000                       # number of ReadExReq miss cycles
system.l2.ReadExReq_miss_latency::total   19343936000                       # number of ReadExReq miss cycles
system.l2.ReadExReq_accesses::.cpu.data        384266                       # number of ReadExReq accesses(hits+misses)
system.l2.ReadExReq_accesses::total            384266                       # number of ReadExReq accesses(hits+misses)
system.l2.ReadExReq_miss_rate::.cpu.data     0.461472                       # miss rate for ReadExReq accesses
system.l2.ReadExReq_miss_rate::total         0.461472                       # miss rate for ReadExReq accesses
system.l2.ReadExReq_avg_miss_latency::.cpu.data 109085.626635                       # average ReadExReq miss latency
system.l2.ReadExReq_avg_miss_latency::total 109085.626635                       # average ReadExReq miss latency
system.l2.ReadExReq_mshr_misses::.cpu.data       177328                       # number of ReadExReq MSHR misses
system.l2.ReadExReq_mshr_misses::total         177328                       # number of ReadExReq MSHR misses
system.l2.ReadExReq_mshr_miss_latency::.cpu.data  15797376000                       # number of ReadExReq MSHR miss cycles
system.l2.ReadExReq_mshr_miss_latency::total  15797376000                       # number of ReadExReq MSHR miss cycles
system.l2.ReadExReq_mshr_miss_rate::.cpu.data     0.461472                       # mshr miss rate for ReadExReq accesses
system.l2.ReadExReq_mshr_miss_rate::total     0.461472                       # mshr miss rate for ReadExReq accesses
system.l2.ReadExReq_avg_mshr_miss_latency::.cpu.data 89085.626635                       # average ReadExReq mshr miss latency
system.l2.ReadExReq_avg_mshr_miss_latency::total 89085.626635                       # average ReadExReq mshr miss latency
system.l2.ReadCleanReq_hits::.cpu.inst            187                       # number of ReadCleanReq hits
system.l2.ReadCleanReq_hits::total                187                       # number of ReadCleanReq hits
system.l2.ReadCleanReq_misses::.cpu.inst          690                       # number of ReadCleanReq misses
system.l2.ReadCleanReq_misses::total              690                       # number of ReadCleanReq misses
system.l2.ReadCleanReq_miss_latency::.cpu.inst     67091000                       # number of ReadCleanReq miss cycles
system.l2.ReadCleanReq_miss_latency::total     67091000                       # number of ReadCleanReq miss cycles
system.l2.ReadCleanReq_accesses::.cpu.inst          877                       # number of ReadCleanReq accesses(hits+misses)
system.l2.ReadCleanReq_accesses::total            877                       # number of ReadCleanReq accesses(hits+misses)
system.l2.ReadCleanReq_miss_rate::.cpu.inst     0.786773                       # miss rate for ReadCleanReq accesses
system.l2.ReadCleanReq_miss_rate::total      0.786773                       # miss rate for ReadCleanReq accesses
system.l2.ReadCleanReq_avg_miss_latency::.cpu.inst 97233.333333                       # average ReadCleanReq miss latency
system.l2.ReadCleanReq_avg_miss_latency::total 97233.333333                       # average ReadCleanReq miss latency
system.l2.ReadCleanReq_mshr_misses::.cpu.inst          690                       # number of ReadCleanReq MSHR misses
system.l2.ReadCleanReq_mshr_misses::total          690                       # number of ReadCleanReq MSHR misses
system.l2.ReadCleanReq_mshr_miss_latency::.cpu.inst     53291000                       # number of ReadCleanReq MSHR miss cycles
system.l2.ReadCleanReq_mshr_miss_latency::total     53291000                       # number of ReadCleanReq MSHR miss cycles
system.l2.ReadCleanReq_mshr_miss_rate::.cpu.inst     0.786773                       # mshr miss rate for ReadCleanReq accesses
system.l2.ReadCleanReq_mshr_miss_rate::total     0.786773                       # mshr miss rate for ReadCleanReq accesses
system.l2.ReadCleanReq_avg_mshr_miss_latency::.cpu.inst 77233.333333                       # average ReadCleanReq mshr miss latency
system.l2.ReadCleanReq_avg_mshr_miss_latency::total 77233.333333                       # average ReadCleanReq mshr miss latency
system.l2.ReadSharedReq_hits::.cpu.data        563227                       # number of ReadSharedReq hits
system.l2.ReadSharedReq_hits::total            563227                       # number of ReadSharedReq hits
system.l2.ReadSharedReq_misses::.cpu.data       109516                       # number of ReadSharedReq misses
system.l2.ReadSharedReq_misses::total          109516                       # number of ReadSharedReq misses
system.l2.ReadSharedReq_miss_latency::.cpu.data  11309975000                       # number of ReadSharedReq miss cycles
system.l2.ReadSharedReq_miss_latency::total  11309975000                       # number of ReadSharedReq miss cycles
system.l2.ReadSharedReq_accesses::.cpu.data       672743                       # number of ReadSharedReq accesses(hits+misses)
system.l2.ReadSharedReq_accesses::total        672743                       # number of ReadSharedReq accesses(hits+misses)
system.l2.ReadSharedReq_miss_rate::.cpu.data     0.162790                       # miss rate for ReadSharedReq accesses
system.l2.ReadSharedReq_miss_rate::total     0.162790                       # miss rate for ReadSharedReq accesses
system.l2.ReadSharedReq_avg_miss_latency::.cpu.data 103272.352898                       # average ReadSharedReq miss latency
system.l2.ReadSharedReq_avg_miss_latency::total 103272.352898                       # average ReadSharedReq miss latency
system.l2.ReadSharedReq_mshr_hits::.cpu.data            5                       # number of ReadSharedReq MSHR hits
system.l2.ReadSharedReq_mshr_hits::total            5                       # number of ReadSharedReq MSHR hits
system.l2.ReadSharedReq_mshr_misses::.cpu.data       109511                       # number of ReadSharedReq MSHR misses
system.l2.ReadSharedReq_mshr_misses::total       109511                       # number of ReadSharedReq MSHR misses
system.l2.ReadSharedReq_mshr_miss_latency::.cpu.data   9119344000                       # number of ReadSharedReq MSHR miss cycles
system.l2.ReadSharedReq_mshr_miss_latency::total   9119344000                       # number of ReadSharedReq MSHR miss cycles
system.l2.ReadSharedReq_mshr_miss_rate::.cpu.data     0.162783                       # mshr miss rate for ReadSharedReq accesses
system.l2.ReadSharedReq_mshr_miss_rate::total     0.162783                       # mshr miss rate for ReadSharedReq accesses
system.l2.ReadSharedReq_avg_mshr_miss_latency::.cpu.data 83273.315009                       # average ReadSharedReq mshr miss latency
system.l2.ReadSharedReq_avg_mshr_miss_latency::total 83273.315009                       # average ReadSharedReq mshr miss latency
system.l2.tags.pwrStateResidencyTicks::UNDEFINED 172777403000                       # Cumulative time (in ticks) in various power states
system.l2.tags.tagsinuse                  8089.202377                       # Cycle average of tags in use
system.l2.tags.total_refs                     2112786                       # Total number of references to valid blocks.
system.l2.tags.sampled_refs                    290332                       # Sample count of references to valid blocks.
system.l2.tags.avg_refs                      7.277138                       # Average number of references to valid blocks.
system.l2.tags.warmup_cycle                     87000                       # Cycle when the warmup percentage was hit.
system.l2.tags.occ_blocks::.writebacks      46.681755                       # Average occupied blocks per requestor
system.l2.tags.occ_blocks::.cpu.inst        27.694300                       # Average occupied blocks per requestor
system.l2.tags.occ_blocks::.cpu.data      8014.826321                       # Average occupied blocks per requestor
system.l2.tags.occ_percent::.writebacks      0.005698                       # Average percentage of cache occupancy
system.l2.tags.occ_percent::.cpu.inst        0.003381                       # Average percentage of cache occupancy
system.l2.tags.occ_percent::.cpu.data        0.978372                       # Average percentage of cache occupancy
system.l2.tags.occ_percent::total            0.987451                       # Average percentage of cache occupancy
system.l2.tags.occ_task_id_blocks::1024          8192                       # Occupied blocks per task id
system.l2.tags.age_task_id_blocks_1024::0           32                       # Occupied blocks per task id
system.l2.tags.age_task_id_blocks_1024::1          449                       # Occupied blocks per task id
system.l2.tags.age_task_id_blocks_1024::2         1939                       # Occupied blocks per task id
system.l2.tags.age_task_id_blocks_1024::3         5138                       # Occupied blocks per task id
system.l2.tags.age_task_id_blocks_1024::4          634                       # Occupied blocks per task id
system.l2.tags.occ_task_id_percent::1024            1                       # Percentage of cache occupancy per task id
system.l2.tags.tag_accesses                   4516488                       # Number of tag accesses
system.l2.tags.data_accesses                  4516488                       # Number of data accesses
system.cpu_voltage_domain.voltage                   1                       # Voltage in Volts
system.mem_ctrls.pwrStateResidencyTicks::UNDEFINED 172777403000                       # Cumulative time (in ticks) in various power states
system.mem_ctrls.bytes_read::.cpu.inst          44160                       # Number of bytes read from this memory
system.mem_ctrls.bytes_read::.cpu.data       18357696                       # Number of bytes read from this memory
system.mem_ctrls.bytes_read::total           18401856                       # Number of bytes read from this memory
system.mem_ctrls.bytes_inst_read::.cpu.inst        44160                       # Number of instructions bytes read from this memory
system.mem_ctrls.bytes_inst_read::total         44160                       # Number of instructions bytes read from this memory
system.mem_ctrls.bytes_written::.writebacks     12798528                       # Number of bytes written to this memory
system.mem_ctrls.bytes_written::total        12798528                       # Number of bytes written to this memory
system.mem_ctrls.num_reads::.cpu.inst             690                       # Number of read requests responded to by this memory
system.mem_ctrls.num_reads::.cpu.data          286839                       # Number of read requests responded to by this memory
system.mem_ctrls.num_reads::total              287529                       # Number of read requests responded to by this memory
system.mem_ctrls.num_writes::.writebacks       199977                       # Number of write requests responded to by this memory
system.mem_ctrls.num_writes::total             199977                       # Number of write requests responded to by this memory
system.mem_ctrls.bw_read::.cpu.inst            255589                       # Total read bandwidth from this memory (bytes/s)
system.mem_ctrls.bw_read::.cpu.data         106250561                       # Total read bandwidth from this memory (bytes/s)
system.mem_ctrls.bw_read::total             106506150                       # Total read bandwidth from this memory (bytes/s)
system.mem_ctrls.bw_inst_read::.cpu.inst       255589                       # Instruction read bandwidth from this memory (bytes/s)
system.mem_ctrls.bw_inst_read::total           255589                       # Instruction read bandwidth from this memory (bytes/s)
system.mem_ctrls.bw_write::.writebacks       74075242                       # Write bandwidth from this memory (bytes/s)
system.mem_ctrls.bw_write::total             74075242                       # Write bandwidth from this memory (bytes/s)
system.mem_ctrls.bw_total::.writebacks       74075242                       # Total bandwidth to/from this memory (bytes/s)
system.mem_ctrls.bw_total::.cpu.inst           255589                       # Total bandwidth to/from this memory (bytes/s)
system.mem_ctrls.bw_total::.cpu.data        106250561                       # Total bandwidth to/from this memory (bytes/s)
system.mem_ctrls.bw_total::total            180581392                       # Total bandwidth to/from this memory (bytes/s)
system.mem_ctrls.avgPriority_.writebacks::samples    199942.00                       # Average QoS priority value for accepted requests
system.mem_ctrls.avgPriority_.cpu.inst::samples       690.00                       # Average QoS priority value for accepted requests
system.mem_ctrls.avgPriority_.cpu.data::samples    285871.00                       # Average QoS priority value for accepted requests
system.mem_ctrls.priorityMinLatency      0.000000018750                       # per QoS priority minimum request to response latency (s)
system.mem_ctrls.priorityMaxLatency      0.006044948500                       # per QoS priority maximum request to response latency (s)
system.mem_ctrls.numReadWriteTurnArounds        11713                       # Number of turnarounds from READ to WRITE
system.mem_ctrls.numWriteReadTurnArounds        11713                       # Number of turnarounds from WRITE to READ
system.mem_ctrls.numStayReadState              805003                       # Number of times bus staying in READ state
system.mem_ctrls.numStayWriteState             188524                       # Number of times bus staying in WRITE state
system.mem_ctrls.readReqs                      287529                       # Number of read requests accepted
system.mem_ctrls.writeReqs                     199977                       # Number of write requests accepted
system.mem_ctrls.readBursts                    287529                       # Number of DRAM read bursts, including those serviced by the write queue
system.mem_ctrls.writeBursts                   199977                       # Number of DRAM write bursts, including those merged in the write queue
system.mem_ctrls.servicedByWrQ                    968                       # Number of DRAM read bursts serviced by the write queue
system.mem_ctrls.mergedWrBursts                    35                       # Number of DRAM write bursts merged with an existing one
system.mem_ctrls.neitherReadNorWriteReqs            0                       # Number of requests that are neither read nor write
system.mem_ctrls.perBankRdBursts::0             17704                       # Per bank write bursts
system.mem_ctrls.perBankRdBursts::1             18856                       # Per bank write bursts
system.mem_ctrls.perBankRdBursts::2             18479                       # Per bank write bursts
system.mem_ctrls.perBankRdBursts::3             19622                       # Per bank write bursts
system.mem_ctrls.perBankRdBursts::4             16943                       # Per bank write bursts
system.mem_ctrls.perBankRdBursts::5             17835                       # Per bank write bursts
system.mem_ctrls.perBankRdBursts::6             17800                       # Per bank write bursts
system.mem_ctrls.perBankRdBursts::7             18041                       # Per bank write bursts
system.mem_ctrls.perBankRdBursts::8             17313                       # Per bank write bursts
system.mem_ctrls.perBankRdBursts::9             16404                       # Per bank write bursts
system.mem_ctrls.perBankRdBursts::10            17044                       # Per bank write bursts
system.mem_ctrls.perBankRdBursts::11            18456                       # Per bank write bursts
system.mem_ctrls.perBankRdBursts::12            17519                       # Per bank write bursts
system.mem_ctrls.perBankRdBursts::13            18052                       # Per bank write bursts
system.mem_ctrls.perBankRdBursts::14            17905                       # Per bank write bursts
system.mem_ctrls.perBankRdBursts::15            18588                       # Per bank write bursts
system.mem_ctrls.perBankWrBursts::0             12069                       # Per bank write bursts
system.mem_ctrls.perBankWrBursts::1             13271                       # Per bank write bursts
system.mem_ctrls.perBankWrBursts::2             13153                       # Per bank write bursts
system.mem_ctrls.perBankWrBursts::3             14438                       # Per bank write bursts
system.mem_ctrls.perBankWrBursts::4             11642                       # Per bank write bursts
system.mem_ctrls.perBankWrBursts::5             12387                       # Per bank write bursts
system.mem_ctrls.perBankWrBursts::6             12303                       # Per bank write bursts
system.mem_ctrls.perBankWrBursts::7             12643                       # Per bank write bursts
system.mem_ctrls.perBankWrBursts::8             12004                       # Per bank write bursts
system.mem_ctrls.perBankWrBursts::9             11198                       # Per bank write bursts
system.mem_ctrls.perBankWrBursts::10            11887                       # Per bank write bursts
system.mem_ctrls.perBankWrBursts::11            12794                       # Per bank write bursts
system.mem_ctrls.perBankWrBursts::12            11964                       # Per bank write bursts
system.mem_ctrls.perBankWrBursts::13            12572                       # Per bank write bursts
system.mem_ctrls.perBankWrBursts::14            12374                       # Per bank write bursts
system.mem_ctrls.perBankWrBursts::15            13219                       # Per bank write bursts
system.mem_ctrls.avgRdQLen                       1.05                       # Average read queue length when enqueuing
system.mem_ctrls.avgWrQLen                      24.79                       # Average write queue length when enqueuing
system.mem_ctrls.totQLat                   4801657000                       # Total ticks spent queuing
system.mem_ctrls.totBusLat                 1432805000                       # Total ticks spent in databus transfers
system.mem_ctrls.totMemAccLat             10174675750                       # Total ticks spent from burst creation until serviced by the DRAM
system.mem_ctrls.avgQLat                     16756.14                       # Average queueing delay per DRAM burst
system.mem_ctrls.avgBusLat                    5000.00                       # Average bus latency per DRAM burst
system.mem_ctrls.avgMemAccLat                35506.14                       # Average memory access latency per DRAM burst
system.mem_ctrls.numRdRetry                         0                       # Number of times read queue was full causing retry
system.mem_ctrls.numWrRetry                         0                       # Number of times write queue was full causing retry
system.mem_ctrls.readRowHits                   145125                       # Number of row buffer hits during reads
system.mem_ctrls.writeRowHits                  102068                       # Number of row buffer hits during writes
system.mem_ctrls.readRowHitRate                 50.64                       # Row buffer hit rate for reads
system.mem_ctrls.writeRowHitRate                51.05                       # Row buffer hit rate for writes
system.mem_ctrls.readPktSize::0                     0                       # Read request sizes (log2)
system.mem_ctrls.readPktSize::1                     0                       # Read request sizes (log2)
system.mem_ctrls.readPktSize::2                     0                       # Read request sizes (log2)
system.mem_ctrls.readPktSize::3                     0                       # Read request sizes (log2)
system.mem_ctrls.readPktSize::4                     0                       # Read request sizes (log2)
system.mem_ctrls.readPktSize::5                     0                       # Read request sizes (log2)
system.mem_ctrls.readPktSize::6                287529                       # Read request sizes (log2)
system.mem_ctrls.writePktSize::0                    0                       # Write request sizes (log2)
system.mem_ctrls.writePktSize::1                    0                       # Write request sizes (log2)
system.mem_ctrls.writePktSize::2                    0                       # Write request sizes (log2)
system.mem_ctrls.writePktSize::3                    0                       # Write request sizes (log2)
system.mem_ctrls.writePktSize::4                    0                       # Write request sizes (log2)
system.mem_ctrls.writePktSize::5                    0                       # Write request sizes (log2)
system.mem_ctrls.writePktSize::6               199977                       # Write request sizes (log2)
system.mem_ctrls.rdQLenPdf::0                  233162                       # What read queue length does an incoming req see
system.mem_ctrls.rdQLenPdf::1                   53159                       # What read queue length does an incoming req see
system.mem_ctrls.rdQLenPdf::2                     138                       # What read queue length does an incoming req see
system.mem_ctrls.rdQLenPdf::3                     101                       # What read queue length does an incoming req see
system.mem_ctrls.rdQLenPdf::4                       1                       # What read queue length does an incoming req see
system.mem_ctrls.rdQLenPdf::5                       0                       # What read queue length does an incoming req see
system.mem_ctrls.rdQLenPdf::6                       0                       # What read queue length does an incoming req see
system.mem_ctrls.rdQLenPdf::7                       0                       # What read queue length does an incoming req see
system.mem_ctrls.rdQLenPdf::8                       0                       # What read queue length does an incoming req see
system.mem_ctrls.rdQLenPdf::9                       0                       # What read queue length does an incoming req see
system.mem_ctrls.rdQLenPdf::10                      0                       # What read queue length does an incoming req see
system.mem_ctrls.rdQLenPdf::11                      0                       # What read queue length does an incoming req see
system.mem_ctrls.rdQLenPdf::12                      0                       # What read queue length does an incoming req see
system.mem_ctrls.rdQLenPdf::13                      0                       # What read queue length does an incoming req see
system.mem_ctrls.rdQLenPdf::14                      0                       # What read queue length does an incoming req see
system.mem_ctrls.rdQLenPdf::15                      0                       # What read queue length does an incoming req see
system.mem_ctrls.rdQLenPdf::16                      0                       # What read queue length does an incoming req see
system.mem_ctrls.rdQLenPdf::17                      0                       # What read queue length does an incoming req see
system.mem_ctrls.rdQLenPdf::18                      0                       # What read queue length does an incoming req see
system.mem_ctrls.rdQLenPdf::19                      0                       # What read queue length does an incoming req see
system.mem_ctrls.rdQLenPdf::20                      0                       # What read queue length does an incoming req see
system.mem_ctrls.rdQLenPdf::21                      0                       # What read queue length does an incoming req see
system.mem_ctrls.rdQLenPdf::22                      0                       # What read queue length does an incoming req see
system.mem_ctrls.rdQLenPdf::23                      0                       # What read queue length does an incoming req see
system.mem_ctrls.rdQLenPdf::24                      0                       # What read queue length does an incoming req see
system.mem_ctrls.rdQLenPdf::25                      0                       # What read queue length does an incoming req see
system.mem_ctrls.rdQLenPdf::26                      0                       # What read queue length does an incoming req see
system.mem_ctrls.rdQLenPdf::27                      0                       # What read queue length does an incoming req see
system.mem_ctrls.rdQLenPdf::28                      0                       # What read queue length does an incoming req see
system.mem_ctrls.rdQLenPdf::29                      0                       # What read queue length does an incoming req see
system.mem_ctrls.rdQLenPdf::30                      0                       # What read queue length does an incoming req see
system.mem_ctrls.rdQLenPdf::31                      0                       # What read queue length does an incoming req see
system.mem_ctrls.wrQLenPdf::0                       1                       # What write queue length does an incoming req see
system.mem_ctrls.wrQLenPdf::1                       1                       # What write queue length does an incoming req see
system.mem_ctrls.wrQLenPdf::2                       1                       # What write queue length does an incoming req see
system.mem_ctrls.wrQLenPdf::3                       1                       # What write queue length does an incoming req see
system.mem_ctrls.wrQLenPdf::4                       1                       # What write queue length does an incoming req see
system.mem_ctrls.wrQLenPdf::5                       1                       # What write queue length does an incoming req see
system.mem_ctrls.wrQLenPdf::6                       1                       # What write queue length does an incoming req see
system.mem_ctrls.wrQLenPdf::7                       1                       # What write queue length does an incoming req see
system.mem_ctrls.wrQLenPdf::8                       1                       # What write queue length does an incoming req see
system.mem_ctrls.wrQLenPdf::9                       1                       # What write queue length does an incoming req see
system.mem_ctrls.wrQLenPdf::10                      1                       # What write queue length does an incoming req see
system.mem_ctrls.wrQLenPdf::11                      1                       # What write queue length does an incoming req see
system.mem_ctrls.wrQLenPdf::12                      1                       # What write queue length does an incoming req see
system.mem_ctrls.wrQLenPdf::13                      1                       # What write queue length does an incoming req see
system.mem_ctrls.wrQLenPdf::14                      1                       # What write queue length does an incoming req see
system.mem_ctrls.wrQLenPdf::15                   5800                       # What write queue length does an incoming req see
system.mem_ctrls.wrQLenPdf::16                   6067                       # What write queue length does an incoming req see
system.mem_ctrls.wrQLenPdf::17                  11541                       # What write queue length does an incoming req see
system.mem_ctrls.wrQLenPdf::18                  11782                       # What write queue length does an incoming req see
system.mem_ctrls.wrQLenPdf::19                  11786                       # What write queue length does an incoming req see
system.mem_ctrls.wrQLenPdf::20                  11778                       # What write queue length does an incoming req see
system.mem_ctrls.wrQLenPdf::21                  11841                       # What write queue length does an incoming req see
system.mem_ctrls.wrQLenPdf::22                  11793                       # What write queue length does an incoming req see
system.mem_ctrls.wrQLenPdf::23                  11790                       # What write queue length does an incoming req see
system.mem_ctrls.wrQLenPdf::24                  11790                       # What write queue length does an incoming req see
system.mem_ctrls.wrQLenPdf::25                  11766                       # What write queue length does an incoming req see
system.mem_ctrls.wrQLenPdf::26                  11770                       # What write queue length does an incoming req see
system.mem_ctrls.wrQLenPdf::27                  11744                       # What write queue length does an incoming req see
system.mem_ctrls.wrQLenPdf::28                  11762                       # What write queue length does an incoming req see
system.mem_ctrls.wrQLenPdf::29                  11754                       # What write queue length does an incoming req see
system.mem_ctrls.wrQLenPdf::30                  11719                       # What write queue length does an incoming req see
system.mem_ctrls.wrQLenPdf::31                  11729                       # What write queue length does an incoming req see
system.mem_ctrls.wrQLenPdf::32                  11713                       # What write queue length does an incoming req see
system.mem_ctrls.wrQLenPdf::33                      2                       # What write queue length does an incoming req see
system.mem_ctrls.wrQLenPdf::34                      0                       # What write queue length does an incoming req see
system.mem_ctrls.wrQLenPdf::35                      0                       # What write queue length does an incoming req see
system.mem_ctrls.wrQLenPdf::36                      0                       # What write queue length does an incoming req see
system.mem_ctrls.wrQLenPdf::37                      0                       # What write queue length does an incoming req see
system.mem_ctrls.wrQLenPdf::38                      0                       # What write queue length does an incoming req see
system.mem_ctrls.wrQLenPdf::39                      0                       # What write queue length does an incoming req see
system.mem_ctrls.wrQLenPdf::40                      0                       # What write queue length does an incoming req see
system.mem_ctrls.wrQLenPdf::41                      0                       # What write queue length does an incoming req see
system.mem_ctrls.wrQLenPdf::42                      0                       # What write queue length does an incoming req see
system.mem_ctrls.wrQLenPdf::43                      0                       # What write queue length does an incoming req see
system.mem_ctrls.wrQLenPdf::44                      0                       # What write queue length does an incoming req see
system.mem_ctrls.wrQLenPdf::45                      0                       # What write queue length does an incoming req see
system.mem_ctrls.wrQLenPdf::46                      0                       # What write queue length does an incoming req see
system.mem_ctrls.wrQLenPdf::47                      0                       # What write queue length does an incoming req see
system.mem_ctrls.wrQLenPdf::48                      0                       # What write queue length does an incoming req see
system.mem_ctrls.wrQLenPdf::49                      0                       # What write queue length does an incoming req see
system.mem_ctrls.wrQLenPdf::50                      0                       # What write queue length does an incoming req see
system.mem_ctrls.wrQLenPdf::51                      0                       # What write queue length does an incoming req see
system.mem_ctrls.wrQLenPdf::52                      0                       # What write queue length does an incoming req see
system.mem_ctrls.wrQLenPdf::53                      0                       # What write queue length does an incoming req see
system.mem_ctrls.wrQLenPdf::54                      0                       # What write queue length does an incoming req see
system.mem_ctrls.wrQLenPdf::55                      0                       # What write queue length does an incoming req see
system.mem_ctrls.wrQLenPdf::56                      0                       # What write queue length does an incoming req see
system.mem_ctrls.wrQLenPdf::57                      0                       # What write queue length does an incoming req see
system.mem_ctrls.wrQLenPdf::58                      0                       # What write queue length does an incoming req see
system.mem_ctrls.wrQLenPdf::59                      0                       # What write queue length does an incoming req see
system.mem_ctrls.wrQLenPdf::60                      0                       # What write queue length does an incoming req see
system.mem_ctrls.wrQLenPdf::61                      0                       # What write queue length does an incoming req see
system.mem_ctrls.wrQLenPdf::62                      0                       # What write queue length does an incoming req see
system.mem_ctrls.wrQLenPdf::63                      0                       # What write queue length does an incoming req see
system.mem_ctrls.bytesPerActivate::samples       239284                       # Bytes accessed per row activation
system.mem_ctrls.bytesPerActivate::mean    130.115378                       # Bytes accessed per row activation
system.mem_ctrls.bytesPerActivate::gmean    88.082208                       # Bytes accessed per row activation
system.mem_ctrls.bytesPerActivate::stdev   187.852848                       # Bytes accessed per row activation
system.mem_ctrls.bytesPerActivate::0-127       184489     77.10%     77.10% # Bytes accessed per row activation
system.mem_ctrls.bytesPerActivate::128-255        29561     12.35%     89.45% # Bytes accessed per row activation
system.mem_ctrls.bytesPerActivate::256-383         5864      2.45%     91.91% # Bytes accessed per row activation
system.mem_ctrls.bytesPerActivate::384-511         1776      0.74%     92.65% # Bytes accessed per row activation
system.mem_ctrls.bytesPerActivate::512-639         9201      3.85%     96.49% # Bytes accessed per row activation
system.mem_ctrls.bytesPerActivate::640-767          886      0.37%     96.86% # Bytes accessed per row activation
system.mem_ctrls.bytesPerActivate::768-895          553      0.23%     97.09% # Bytes accessed per row activation
system.mem_ctrls.bytesPerActivate::896-1023          529      0.22%     97.31% # Bytes accessed per row activation
system.mem_ctrls.bytesPerActivate::1024-1151         6425      2.69%    100.00% # Bytes accessed per row activation
system.mem_ctrls.bytesPerActivate::total       239284                       # Bytes accessed per row activation
system.mem_ctrls.rdPerTurnAround::samples        11713                       # Reads before turning the bus around for writes
system.mem_ctrls.rdPerTurnAround::mean      24.464270                       # Reads before turning the bus around for writes
system.mem_ctrls.rdPerTurnAround::gmean     22.066914                       # Reads before turning the bus around for writes
system.mem_ctrls.rdPerTurnAround::stdev     24.712188                       # Reads before turning the bus around for writes
system.mem_ctrls.rdPerTurnAround::0-63          11508     98.25%     98.25% # Reads before turning the bus around for writes
system.mem_ctrls.rdPerTurnAround::64-127          132      1.13%     99.38% # Reads before turning the bus around for writes
system.mem_ctrls.rdPerTurnAround::128-191           29      0.25%     99.62% # Reads before turning the bus around for writes
system.mem_ctrls.rdPerTurnAround::192-255            8      0.07%     99.69% # Reads before turning the bus around for writes
system.mem_ctrls.rdPerTurnAround::256-319           28      0.24%     99.93% # Reads before turning the bus around for writes
[...]
system.cpu.icache.tags.occ_percent::.cpu.inst     0.635879                       # Average percentage of cache occupancy
system.cpu.icache.tags.occ_percent::total     0.635879                       # Average percentage of cache occupancy
system.cpu.icache.tags.occ_task_id_blocks::1024          412                       # Occupied blocks per task id
system.cpu.icache.tags.age_task_id_blocks_1024::4          412                       # Occupied blocks per task id
system.cpu.icache.tags.occ_task_id_percent::1024     0.804688                       # Percentage of cache occupancy per task id
system.cpu.icache.tags.tag_accesses          10200660                       # Number of tag accesses
system.cpu.icache.tags.data_accesses         10200660                       # Number of data accesses
system.cpu.dtb.walker.pwrStateResidencyTicks::UNDEFINED 172777403000                       # Cumulative time (in ticks) in various power states
system.cpu.dtb.stage2_mmu.stage2_tlb.walker.pwrStateResidencyTicks::UNDEFINED 172777403000                       # Cumulative time (in ticks) in various power states
system.cpu.dcache.pwrStateResidencyTicks::UNDEFINED 172777403000                       # Cumulative time (in ticks) in various power states
system.cpu.dcache.demand_hits::.cpu.data     51059543                       # number of demand (read+write) hits
system.cpu.dcache.demand_hits::total         51059543                       # number of demand (read+write) hits
system.cpu.dcache.overall_hits::.cpu.data     51059955                       # number of overall hits
system.cpu.dcache.overall_hits::total        51059955                       # number of overall hits
system.cpu.dcache.demand_misses::.cpu.data      1108443                       # number of demand (read+write) misses
system.cpu.dcache.demand_misses::total        1108443                       # number of demand (read+write) misses
system.cpu.dcache.overall_misses::.cpu.data      1116449                       # number of overall misses
system.cpu.dcache.overall_misses::total       1116449                       # number of overall misses
system.cpu.dcache.demand_miss_latency::.cpu.data  53654006999                       # number of demand (read+write) miss cycles
system.cpu.dcache.demand_miss_latency::total  53654006999                       # number of demand (read+write) miss cycles
system.cpu.dcache.overall_miss_latency::.cpu.data  53654006999                       # number of overall miss cycles
system.cpu.dcache.overall_miss_latency::total  53654006999                       # number of overall miss cycles
system.cpu.dcache.demand_accesses::.cpu.data     52167986                       # number of demand (read+write) accesses
system.cpu.dcache.demand_accesses::total     52167986                       # number of demand (read+write) accesses
system.cpu.dcache.overall_accesses::.cpu.data     52176404                       # number of overall (read+write) accesses
system.cpu.dcache.overall_accesses::total     52176404                       # number of overall (read+write) accesses
system.cpu.dcache.demand_miss_rate::.cpu.data     0.021248                       # miss rate for demand accesses
system.cpu.dcache.demand_miss_rate::total     0.021248                       # miss rate for demand accesses
system.cpu.dcache.overall_miss_rate::.cpu.data     0.021398                       # miss rate for overall accesses
system.cpu.dcache.overall_miss_rate::total     0.021398                       # miss rate for overall accesses
system.cpu.dcache.demand_avg_miss_latency::.cpu.data 48404.840843                       # average overall miss latency
system.cpu.dcache.demand_avg_miss_latency::total 48404.840843                       # average overall miss latency
system.cpu.dcache.overall_avg_miss_latency::.cpu.data 48057.732148                       # average overall miss latency
system.cpu.dcache.overall_avg_miss_latency::total 48057.732148                       # average overall miss latency
system.cpu.dcache.blocked_cycles::no_mshrs        89350                       # number of cycles access was blocked
system.cpu.dcache.blocked_cycles::no_targets            0                       # number of cycles access was blocked
system.cpu.dcache.blocked::no_mshrs              3453                       # number of cycles access was blocked
system.cpu.dcache.blocked::no_targets               0                       # number of cycles access was blocked
system.cpu.dcache.avg_blocked_cycles::no_mshrs    25.876050                       # average number of cycles each access was blocked
system.cpu.dcache.avg_blocked_cycles::no_targets          nan                       # average number of cycles each access was blocked
system.cpu.dcache.writebacks::.writebacks       946902                       # number of writebacks
system.cpu.dcache.writebacks::total            946902                       # number of writebacks
system.cpu.dcache.demand_mshr_hits::.cpu.data        59439                       # number of demand (read+write) MSHR hits
system.cpu.dcache.demand_mshr_hits::total        59439                       # number of demand (read+write) MSHR hits
system.cpu.dcache.overall_mshr_hits::.cpu.data        59439                       # number of overall MSHR hits
system.cpu.dcache.overall_mshr_hits::total        59439                       # number of overall MSHR hits
system.cpu.dcache.demand_mshr_misses::.cpu.data      1049004                       # number of demand (read+write) MSHR misses
system.cpu.dcache.demand_mshr_misses::total      1049004                       # number of demand (read+write) MSHR misses
system.cpu.dcache.overall_mshr_misses::.cpu.data      1057004                       # number of overall MSHR misses
system.cpu.dcache.overall_mshr_misses::total      1057004                       # number of overall MSHR misses
system.cpu.dcache.demand_mshr_miss_latency::.cpu.data  49739215000                       # number of demand (read+write) MSHR miss cycles
system.cpu.dcache.demand_mshr_miss_latency::total  49739215000                       # number of demand (read+write) MSHR miss cycles
system.cpu.dcache.overall_mshr_miss_latency::.cpu.data  50542730992                       # number of overall MSHR miss cycles
system.cpu.dcache.overall_mshr_miss_latency::total  50542730992                       # number of overall MSHR miss cycles
system.cpu.dcache.demand_mshr_miss_rate::.cpu.data     0.020108                       # mshr miss rate for demand accesses
system.cpu.dcache.demand_mshr_miss_rate::total     0.020108                       # mshr miss rate for demand accesses
system.cpu.dcache.overall_mshr_miss_rate::.cpu.data     0.020258                       # mshr miss rate for overall accesses
system.cpu.dcache.overall_mshr_miss_rate::total     0.020258                       # mshr miss rate for overall accesses
system.cpu.dcache.demand_avg_mshr_miss_latency::.cpu.data 47415.658091                       # average overall mshr miss latency
system.cpu.dcache.demand_avg_mshr_miss_latency::total 47415.658091                       # average overall mshr miss latency
system.cpu.dcache.overall_avg_mshr_miss_latency::.cpu.data 47816.972303                       # average overall mshr miss latency
system.cpu.dcache.overall_avg_mshr_miss_latency::total 47816.972303                       # average overall mshr miss latency
system.cpu.dcache.replacements                1056497                       # number of replacements
system.cpu.dcache.ReadReq_hits::.cpu.data     40521614                       # number of ReadReq hits
system.cpu.dcache.ReadReq_hits::total        40521614                       # number of ReadReq hits
system.cpu.dcache.ReadReq_misses::.cpu.data       668193                       # number of ReadReq misses
system.cpu.dcache.ReadReq_misses::total        668193                       # number of ReadReq misses
system.cpu.dcache.ReadReq_miss_latency::.cpu.data  26160209000                       # number of ReadReq miss cycles
system.cpu.dcache.ReadReq_miss_latency::total  26160209000                       # number of ReadReq miss cycles
system.cpu.dcache.ReadReq_accesses::.cpu.data     41189807                       # number of ReadReq accesses(hits+misses)
system.cpu.dcache.ReadReq_accesses::total     41189807                       # number of ReadReq accesses(hits+misses)
system.cpu.dcache.ReadReq_miss_rate::.cpu.data     0.016222                       # miss rate for ReadReq accesses
system.cpu.dcache.ReadReq_miss_rate::total     0.016222                       # miss rate for ReadReq accesses
system.cpu.dcache.ReadReq_avg_miss_latency::.cpu.data 39150.678023                       # average ReadReq miss latency
system.cpu.dcache.ReadReq_avg_miss_latency::total 39150.678023                       # average ReadReq miss latency
system.cpu.dcache.ReadReq_mshr_hits::.cpu.data         3317                       # number of ReadReq MSHR hits
system.cpu.dcache.ReadReq_mshr_hits::total         3317                       # number of ReadReq MSHR hits
system.cpu.dcache.ReadReq_mshr_misses::.cpu.data       664876                       # number of ReadReq MSHR misses
system.cpu.dcache.ReadReq_mshr_misses::total       664876                       # number of ReadReq MSHR misses
system.cpu.dcache.ReadReq_mshr_miss_latency::.cpu.data  24682001000                       # number of ReadReq MSHR miss cycles
system.cpu.dcache.ReadReq_mshr_miss_latency::total  24682001000                       # number of ReadReq MSHR miss cycles
system.cpu.dcache.ReadReq_mshr_miss_rate::.cpu.data     0.016142                       # mshr miss rate for ReadReq accesses
system.cpu.dcache.ReadReq_mshr_miss_rate::total     0.016142                       # mshr miss rate for ReadReq accesses
system.cpu.dcache.ReadReq_avg_mshr_miss_latency::.cpu.data 37122.713107                       # average ReadReq mshr miss latency
system.cpu.dcache.ReadReq_avg_mshr_miss_latency::total 37122.713107                       # average ReadReq mshr miss latency
system.cpu.dcache.WriteReq_hits::.cpu.data     10537929                       # number of WriteReq hits
system.cpu.dcache.WriteReq_hits::total       10537929                       # number of WriteReq hits
system.cpu.dcache.WriteReq_misses::.cpu.data       440250                       # number of WriteReq misses
system.cpu.dcache.WriteReq_misses::total       440250                       # number of WriteReq misses
system.cpu.dcache.WriteReq_miss_latency::.cpu.data  27493797999                       # number of WriteReq miss cycles
system.cpu.dcache.WriteReq_miss_latency::total  27493797999                       # number of WriteReq miss cycles
system.cpu.dcache.WriteReq_accesses::.cpu.data     10978179                       # number of WriteReq accesses(hits+misses)
system.cpu.dcache.WriteReq_accesses::total     10978179                       # number of WriteReq accesses(hits+misses)
system.cpu.dcache.WriteReq_miss_rate::.cpu.data     0.040102                       # miss rate for WriteReq accesses
system.cpu.dcache.WriteReq_miss_rate::total     0.040102                       # miss rate for WriteReq accesses
system.cpu.dcache.WriteReq_avg_miss_latency::.cpu.data 62450.421349                       # average WriteReq miss latency
system.cpu.dcache.WriteReq_avg_miss_latency::total 62450.421349                       # average WriteReq miss latency
system.cpu.dcache.WriteReq_mshr_hits::.cpu.data        56122                       # number of WriteReq MSHR hits
system.cpu.dcache.WriteReq_mshr_hits::total        56122                       # number of WriteReq MSHR hits
system.cpu.dcache.WriteReq_mshr_misses::.cpu.data       384128                       # number of WriteReq MSHR misses
system.cpu.dcache.WriteReq_mshr_misses::total       384128                       # number of WriteReq MSHR misses
system.cpu.dcache.WriteReq_mshr_miss_latency::.cpu.data  25057214000                       # number of WriteReq MSHR miss cycles
system.cpu.dcache.WriteReq_mshr_miss_latency::total  25057214000                       # number of WriteReq MSHR miss cycles
system.cpu.dcache.WriteReq_mshr_miss_rate::.cpu.data     0.034990                       # mshr miss rate for WriteReq accesses
system.cpu.dcache.WriteReq_mshr_miss_rate::total     0.034990                       # mshr miss rate for WriteReq accesses
system.cpu.dcache.WriteReq_avg_mshr_miss_latency::.cpu.data 65231.417652                       # average WriteReq mshr miss latency
system.cpu.dcache.WriteReq_avg_mshr_miss_latency::total 65231.417652                       # average WriteReq mshr miss latency
system.cpu.dcache.SoftPFReq_hits::.cpu.data          412                       # number of SoftPFReq hits
system.cpu.dcache.SoftPFReq_hits::total           412                       # number of SoftPFReq hits
system.cpu.dcache.SoftPFReq_misses::.cpu.data         8006                       # number of SoftPFReq misses
system.cpu.dcache.SoftPFReq_misses::total         8006                       # number of SoftPFReq misses
system.cpu.dcache.SoftPFReq_accesses::.cpu.data         8418                       # number of SoftPFReq accesses(hits+misses)
system.cpu.dcache.SoftPFReq_accesses::total         8418                       # number of SoftPFReq accesses(hits+misses)
system.cpu.dcache.SoftPFReq_miss_rate::.cpu.data     0.951057                       # miss rate for SoftPFReq accesses
system.cpu.dcache.SoftPFReq_miss_rate::total     0.951057                       # miss rate for SoftPFReq accesses
system.cpu.dcache.SoftPFReq_mshr_misses::.cpu.data         8000                       # number of SoftPFReq MSHR misses
system.cpu.dcache.SoftPFReq_mshr_misses::total         8000                       # number of SoftPFReq MSHR misses
system.cpu.dcache.SoftPFReq_mshr_miss_latency::.cpu.data    803515992                       # number of SoftPFReq MSHR miss cycles
system.cpu.dcache.SoftPFReq_mshr_miss_latency::total    803515992                       # number of SoftPFReq MSHR miss cycles
system.cpu.dcache.SoftPFReq_mshr_miss_rate::.cpu.data     0.950344                       # mshr miss rate for SoftPFReq accesses
system.cpu.dcache.SoftPFReq_mshr_miss_rate::total     0.950344                       # mshr miss rate for SoftPFReq accesses
system.cpu.dcache.SoftPFReq_avg_mshr_miss_latency::.cpu.data 100439.499000                       # average SoftPFReq mshr miss latency
system.cpu.dcache.SoftPFReq_avg_mshr_miss_latency::total 100439.499000                       # average SoftPFReq mshr miss latency
system.cpu.dcache.LoadLockedReq_hits::.cpu.data           33                       # number of LoadLockedReq hits
system.cpu.dcache.LoadLockedReq_hits::total           33                       # number of LoadLockedReq hits
system.cpu.dcache.LoadLockedReq_misses::.cpu.data            5                       # number of LoadLockedReq misses
system.cpu.dcache.LoadLockedReq_misses::total            5                       # number of LoadLockedReq misses
system.cpu.dcache.LoadLockedReq_miss_latency::.cpu.data       558000                       # number of LoadLockedReq miss cycles
system.cpu.dcache.LoadLockedReq_miss_latency::total       558000                       # number of LoadLockedReq miss cycles
system.cpu.dcache.LoadLockedReq_accesses::.cpu.data           38                       # number of LoadLockedReq accesses(hits+misses)
system.cpu.dcache.LoadLockedReq_accesses::total           38                       # number of LoadLockedReq accesses(hits+misses)
system.cpu.dcache.LoadLockedReq_miss_rate::.cpu.data     0.131579                       # miss rate for LoadLockedReq accesses
system.cpu.dcache.LoadLockedReq_miss_rate::total     0.131579                       # miss rate for LoadLockedReq accesses
system.cpu.dcache.LoadLockedReq_avg_miss_latency::.cpu.data       111600                       # average LoadLockedReq miss latency
system.cpu.dcache.LoadLockedReq_avg_miss_latency::total       111600                       # average LoadLockedReq miss latency
system.cpu.dcache.LoadLockedReq_mshr_misses::.cpu.data            5                       # number of LoadLockedReq MSHR misses
system.cpu.dcache.LoadLockedReq_mshr_misses::total            5                       # number of LoadLockedReq MSHR misses
system.cpu.dcache.LoadLockedReq_mshr_miss_latency::.cpu.data       548000                       # number of LoadLockedReq MSHR miss cycles
system.cpu.dcache.LoadLockedReq_mshr_miss_latency::total       548000                       # number of LoadLockedReq MSHR miss cycles
system.cpu.dcache.LoadLockedReq_mshr_miss_rate::.cpu.data     0.131579                       # mshr miss rate for LoadLockedReq accesses
system.cpu.dcache.LoadLockedReq_mshr_miss_rate::total     0.131579                       # mshr miss rate for LoadLockedReq accesses
system.cpu.dcache.LoadLockedReq_avg_mshr_miss_latency::.cpu.data       109600                       # average LoadLockedReq mshr miss latency
system.cpu.dcache.LoadLockedReq_avg_mshr_miss_latency::total       109600                       # average LoadLockedReq mshr miss latency
system.cpu.dcache.StoreCondReq_hits::.cpu.data           38                       # number of StoreCondReq hits
system.cpu.dcache.StoreCondReq_hits::total           38                       # number of StoreCondReq hits
system.cpu.dcache.StoreCondReq_accesses::.cpu.data           38                       # number of StoreCondReq accesses(hits+misses)
system.cpu.dcache.StoreCondReq_accesses::total           38                       # number of StoreCondReq accesses(hits+misses)
system.cpu.dcache.tags.pwrStateResidencyTicks::UNDEFINED 172777403000                       # Cumulative time (in ticks) in various power states
system.cpu.dcache.tags.tagsinuse           507.544526                       # Cycle average of tags in use
system.cpu.dcache.tags.total_refs            52117035                       # Total number of references to valid blocks.
system.cpu.dcache.tags.sampled_refs           1057009                       # Sample count of references to valid blocks.
system.cpu.dcache.tags.avg_refs             49.306141                       # Average number of references to valid blocks.
system.cpu.dcache.tags.warmup_cycle            223000                       # Cycle when the warmup percentage was hit.
system.cpu.dcache.tags.occ_blocks::.cpu.data   507.544526                       # Average occupied blocks per requestor
system.cpu.dcache.tags.occ_percent::.cpu.data     0.991298                       # Average percentage of cache occupancy
system.cpu.dcache.tags.occ_percent::total     0.991298                       # Average percentage of cache occupancy
system.cpu.dcache.tags.occ_task_id_blocks::1024          512                       # Occupied blocks per task id
system.cpu.dcache.tags.age_task_id_blocks_1024::0           56                       # Occupied blocks per task id
system.cpu.dcache.tags.age_task_id_blocks_1024::1          286                       # Occupied blocks per task id
system.cpu.dcache.tags.age_task_id_blocks_1024::2          169                       # Occupied blocks per task id
system.cpu.dcache.tags.age_task_id_blocks_1024::3            1                       # Occupied blocks per task id
system.cpu.dcache.tags.occ_task_id_percent::1024            1                       # Percentage of cache occupancy per task id
system.cpu.dcache.tags.tag_accesses          53233489                       # Number of tag accesses
system.cpu.dcache.tags.data_accesses         53233489                       # Number of data accesses
system.cpu.itb.walker.pwrStateResidencyTicks::UNDEFINED 172777403000                       # Cumulative time (in ticks) in various power states
system.cpu.itb.stage2_mmu.stage2_tlb.walker.pwrStateResidencyTicks::UNDEFINED 172777403000                       # Cumulative time (in ticks) in various power states

---------- End Simulation Statistics   ----------
