
---------- Begin Simulation Statistics ----------
final_tick                               123228938000                       # Number of ticks from beginning of simulation (restored from checkpoints and never reset)
host_inst_rate                                 378648                       # Simulator instruction rate (inst/s)
host_mem_usage                                 713112                       # Number of bytes of host memory used
host_op_rate                                   382898                       # Simulator op (including micro ops) rate (op/s)
host_seconds                                   264.10                       # Real time elapsed on the host
host_tick_rate                              466604282                       # Simulator tick rate (ticks/s)
sim_freq                                 1000000000000                       # Frequency of simulated ticks
sim_insts                                   100000000                       # Number of instructions simulated
sim_ops                                     101122354                       # Number of ops (including micro ops) simulated
sim_seconds                                  0.123229                       # Number of seconds simulated
sim_ticks                                123228938000                       # Number of ticks simulated
system.cpu.branchPred.BTBCorrect                    0                       # Number of correct BTB predictions (this stat may not work properly.
system.cpu.branchPred.BTBHitPct             84.823369                       # BTB Hit Percentage
system.cpu.branchPred.BTBHits                 4086594                       # Number of BTB hits
system.cpu.branchPred.BTBLookups              4817769                       # Number of BTB lookups
system.cpu.branchPred.RASInCorrect                 20                       # Number of incorrect RAS predictions.
system.cpu.branchPred.condIncorrect            345767                       # Number of conditional branches incorrect
system.cpu.branchPred.condPredicted           5102555                       # Number of conditional branches predicted
system.cpu.branchPred.indirectHits             102848                       # Number of indirect target hits.
system.cpu.branchPred.indirectLookups          675333                       # Number of indirect predictor lookups.
system.cpu.branchPred.indirectMisses           572485                       # Number of indirect misses.
system.cpu.branchPred.lookups                 6510617                       # Number of BP lookups
system.cpu.branchPred.usedRAS                  312619                       # Number of times the RAS was used to get a target.
system.cpu.branchPredindirectMispredicted        35000                       # Number of mispredicted indirect branches.
system.cpu.committedInsts                   100000000                       # Number of instructions committed
system.cpu.committedOps                     101122354                       # Number of ops (including micro ops) committed
system.cpu.cpi                               1.232289                       # CPI: cycles per instruction
system.cpu.discardedOps                        960438                       # Number of ops (including micro ops) which were discarded before commit
system.cpu.dtb.accesses                             0                       # DTB accesses
system.cpu.dtb.align_faults                         0                       # Number of TLB faults due to alignment restrictions
system.cpu.dtb.domain_faults                        0                       # Number of TLB faults due to domain restrictions
system.cpu.dtb.flush_entries                        0                       # Number of entries that have been flushed from TLB
system.cpu.dtb.flush_tlb                            0                       # Number of times complete TLB was flushed
system.cpu.dtb.flush_tlb_asid                       0                       # Number of times TLB was flushed by ASID
system.cpu.dtb.flush_tlb_mva                        0                       # Number of times TLB was flushed by MVA
system.cpu.dtb.flush_tlb_mva_asid                   0                       # Number of times TLB was flushed by MVA & ASID
system.cpu.dtb.hits                                 0                       # DTB hits
system.cpu.dtb.inst_accesses                        0                       # ITB inst accesses
system.cpu.dtb.inst_hits                            0                       # ITB inst hits
system.cpu.dtb.inst_misses                          0                       # ITB inst misses
system.cpu.dtb.misses                               0                       # DTB misses
system.cpu.dtb.perms_faults                         0                       # Number of TLB faults due to permissions restrictions
system.cpu.dtb.prefetch_faults                      0                       # Number of TLB faults due to prefetch
system.cpu.dtb.read_accesses                        0                       # DTB read accesses
system.cpu.dtb.read_hits                            0                       # DTB read hits
system.cpu.dtb.read_misses                          0                       # DTB read misses
system.cpu.dtb.stage2_mmu.stage2_tlb.accesses            0                       # DTB accesses
system.cpu.dtb.stage2_mmu.stage2_tlb.align_faults            0                       # Number of TLB faults due to alignment restrictions
system.cpu.dtb.stage2_mmu.stage2_tlb.domain_faults            0                       # Number of TLB faults due to domain restrictions
system.cpu.dtb.stage2_mmu.stage2_tlb.flush_entries            0                       # Number of entries that have been flushed from TLB
system.cpu.dtb.stage2_mmu.stage2_tlb.flush_tlb            0                       # Number of times complete TLB was flushed
system.cpu.dtb.stage2_mmu.stage2_tlb.flush_tlb_asid            0                       # Number of times TLB was flushed by ASID
system.cpu.dtb.stage2_mmu.stage2_tlb.flush_tlb_mva            0                       # Number of times TLB was flushed by MVA
system.cpu.dtb.stage2_mmu.stage2_tlb.flush_tlb_mva_asid            0                       # Number of times TLB was flushed by MVA & ASID
system.cpu.dtb.stage2_mmu.stage2_tlb.hits            0                       # DTB hits
system.cpu.dtb.stage2_mmu.stage2_tlb.inst_accesses            0                       # ITB inst accesses
system.cpu.dtb.stage2_mmu.stage2_tlb.inst_hits            0                       # ITB inst hits
system.cpu.dtb.stage2_mmu.stage2_tlb.inst_misses            0                       # ITB inst misses
system.cpu.dtb.stage2_mmu.stage2_tlb.misses            0                       # DTB misses
system.cpu.dtb.stage2_mmu.stage2_tlb.perms_faults            0                       # Number of TLB faults due to permissions restrictions
system.cpu.dtb.stage2_mmu.stage2_tlb.prefetch_faults            0                       # Number of TLB faults due to prefetch
system.cpu.dtb.stage2_mmu.stage2_tlb.read_accesses            0                       # DTB read accesses
system.cpu.dtb.stage2_mmu.stage2_tlb.read_hits            0                       # DTB read hits
system.cpu.dtb.stage2_mmu.stage2_tlb.read_misses            0                       # DTB read misses
system.cpu.dtb.stage2_mmu.stage2_tlb.walker.walkRequestOrigin_Requested::Data            0                       # Table walker requests started/completed, data/inst
system.cpu.dtb.stage2_mmu.stage2_tlb.walker.walkRequestOrigin_Requested::Inst            0                       # Table walker requests started/completed, data/inst
system.cpu.dtb.stage2_mmu.stage2_tlb.walker.walkRequestOrigin_Requested::total            0                       # Table walker requests started/completed, data/inst
system.cpu.dtb.stage2_mmu.stage2_tlb.walker.walkRequestOrigin_Completed::Data            0                       # Table walker requests started/completed, data/inst
system.cpu.dtb.stage2_mmu.stage2_tlb.walker.walkRequestOrigin_Completed::Inst            0                       # Table walker requests started/completed, data/inst
system.cpu.dtb.stage2_mmu.stage2_tlb.walker.walkRequestOrigin_Completed::total            0                       # Table walker requests started/completed, data/inst
system.cpu.dtb.stage2_mmu.stage2_tlb.walker.walkRequestOrigin::total            0                       # Table walker requests started/completed, data/inst
system.cpu.dtb.stage2_mmu.stage2_tlb.walker.walks            0                       # Table walker walks requested
system.cpu.dtb.stage2_mmu.stage2_tlb.write_accesses            0                       # DTB write accesses
system.cpu.dtb.stage2_mmu.stage2_tlb.write_hits            0                       # DTB write hits
system.cpu.dtb.stage2_mmu.stage2_tlb.write_misses            0                       # DTB write misses
system.cpu.dtb.walker.walkRequestOrigin_Requested::Data            0                       # Table walker requests started/completed, data/inst
system.cpu.dtb.walker.walkRequestOrigin_Requested::Inst            0                       # Table walker requests started/completed, data/inst
system.cpu.dtb.walker.walkRequestOrigin_Requested::total            0                       # Table walker requests started/completed, data/inst
system.cpu.dtb.walker.walkRequestOrigin_Completed::Data            0                       # Table walker requests started/completed, data/inst
system.cpu.dtb.walker.walkRequestOrigin_Completed::Inst            0                       # Table walker requests started/completed, data/inst
system.cpu.dtb.walker.walkRequestOrigin_Completed::total            0                       # Table walker requests started/completed, data/inst
system.cpu.dtb.walker.walkRequestOrigin::total            0                       # Table walker requests started/completed, data/inst
system.cpu.dtb.walker.walks                         0                       # Table walker walks requested
system.cpu.dtb.write_accesses                       0                       # DTB write accesses
system.cpu.dtb.write_hits                           0                       # DTB write hits
system.cpu.dtb.write_misses                         0                       # DTB write misses
system.cpu.fetch2.amo_instructions                  0                       # Number of memory atomic instructions successfully decoded
system.cpu.fetch2.fp_instructions                   0                       # Number of floating point instructions successfully decoded
system.cpu.fetch2.int_instructions           48894025                       # Number of integer instructions successfully decoded
system.cpu.fetch2.load_instructions          40554033                       # Number of memory load instructions successfully decoded
system.cpu.fetch2.store_instructions          6262923                       # Number of memory store instructions successfully decoded
system.cpu.fetch2.vec_instructions                  0                       # Number of SIMD instructions successfully decoded
system.cpu.idleCycles                         7016692                       # Total number of cycles that the object has spent stopped
system.cpu.ipc                               0.811498                       # IPC: instructions per cycle
system.cpu.itb.accesses                             0                       # DTB accesses
system.cpu.itb.align_faults                         0                       # Number of TLB faults due to alignment restrictions
system.cpu.itb.domain_faults                        0                       # Number of TLB faults due to domain restrictions
system.cpu.itb.flush_entries                        0                       # Number of entries that have been flushed from TLB
system.cpu.itb.flush_tlb                            0                       # Number of times complete TLB was flushed
system.cpu.itb.flush_tlb_asid                       0                       # Number of times TLB was flushed by ASID
system.cpu.itb.flush_tlb_mva                        0                       # Number of times TLB was flushed by MVA
system.cpu.itb.flush_tlb_mva_asid                   0                       # Number of times TLB was flushed by MVA & ASID
system.cpu.itb.hits                                 0                       # DTB hits
system.cpu.itb.inst_accesses                        0                       # ITB inst accesses
system.cpu.itb.inst_hits                            0                       # ITB inst hits
system.cpu.itb.inst_misses                          0                       # ITB inst misses
system.cpu.itb.misses                               0                       # DTB misses
system.cpu.itb.perms_faults                         0                       # Number of TLB faults due to permissions restrictions
system.cpu.itb.prefetch_faults                      0                       # Number of TLB faults due to prefetch
system.cpu.itb.read_accesses                        0                       # DTB read accesses
system.cpu.itb.read_hits                            0                       # DTB read hits
system.cpu.itb.read_misses                          0                       # DTB read misses
system.cpu.itb.stage2_mmu.stage2_tlb.accesses            0                       # DTB accesses
system.cpu.itb.stage2_mmu.stage2_tlb.align_faults            0                       # Number of TLB faults due to alignment restrictions
system.cpu.itb.stage2_mmu.stage2_tlb.domain_faults            0                       # Number of TLB faults due to domain restrictions
system.cpu.itb.stage2_mmu.stage2_tlb.flush_entries            0                       # Number of entries that have been flushed from TLB
system.cpu.itb.stage2_mmu.stage2_tlb.flush_tlb            0                       # Number of times complete TLB was flushed
system.cpu.itb.stage2_mmu.stage2_tlb.flush_tlb_asid            0                       # Number of times TLB was flushed by ASID
system.cpu.itb.stage2_mmu.stage2_tlb.flush_tlb_mva            0                       # Number of times TLB was flushed by MVA
system.cpu.itb.stage2_mmu.stage2_tlb.flush_tlb_mva_asid            0                       # Number of times TLB was flushed by MVA & ASID
system.cpu.itb.stage2_mmu.stage2_tlb.hits            0                       # DTB hits
system.cpu.itb.stage2_mmu.stage2_tlb.inst_accesses            0                       # ITB inst accesses
system.cpu.itb.stage2_mmu.stage2_tlb.inst_hits            0                       # ITB inst hits
system.cpu.itb.stage2_mmu.stage2_tlb.inst_misses            0                       # ITB inst misses
system.cpu.itb.stage2_mmu.stage2_tlb.misses            0                       # DTB misses
system.cpu.itb.stage2_mmu.stage2_tlb.perms_faults            0                       # Number of TLB faults due to permissions restrictions
system.cpu.itb.stage2_mmu.stage2_tlb.prefetch_faults            0                       # Number of TLB faults due to prefetch
system.cpu.itb.stage2_mmu.stage2_tlb.read_accesses            0                       # DTB read accesses
system.cpu.itb.stage2_mmu.stage2_tlb.read_hits            0                       # DTB read hits
system.cpu.itb.stage2_mmu.stage2_tlb.read_misses            0                       # DTB read misses
system.cpu.itb.stage2_mmu.stage2_tlb.walker.walkRequestOrigin_Requested::Data            0                       # Table walker requests started/completed, data/inst
system.cpu.itb.stage2_mmu.stage2_tlb.walker.walkRequestOrigin_Requested::Inst            0                       # Table walker requests started/completed, data/inst
system.cpu.itb.stage2_mmu.stage2_tlb.walker.walkRequestOrigin_Requested::total            0                       # Table walker requests started/completed, data/inst
system.cpu.itb.stage2_mmu.stage2_tlb.walker.walkRequestOrigin_Completed::Data            0                       # Table walker requests started/completed, data/inst
system.cpu.itb.stage2_mmu.stage2_tlb.walker.walkRequestOrigin_Completed::Inst            0                       # Table walker requests started/completed, data/inst
system.cpu.itb.stage2_mmu.stage2_tlb.walker.walkRequestOrigin_Completed::total            0                       # Table walker requests started/completed, data/inst
system.cpu.itb.stage2_mmu.stage2_tlb.walker.walkRequestOrigin::total            0                       # Table walker requests started/completed, data/inst
system.cpu.itb.stage2_mmu.stage2_tlb.walker.walks            0                       # Table walker walks requested
system.cpu.itb.stage2_mmu.stage2_tlb.write_accesses            0                       # DTB write accesses
system.cpu.itb.stage2_mmu.stage2_tlb.write_hits            0                       # DTB write hits
system.cpu.itb.stage2_mmu.stage2_tlb.write_misses            0                       # DTB write misses
system.cpu.itb.walker.walkRequestOrigin_Requested::Data            0                       # Table walker requests started/completed, data/inst
system.cpu.itb.walker.walkRequestOrigin_Requested::Inst            0                       # Table walker requests started/completed, data/inst
system.cpu.itb.walker.walkRequestOrigin_Requested::total            0                       # Table walker requests started/completed, data/inst
system.cpu.itb.walker.walkRequestOrigin_Completed::Data            0                       # Table walker requests started/completed, data/inst
system.cpu.itb.walker.walkRequestOrigin_Completed::Inst            0                       # Table walker requests started/completed, data/inst
system.cpu.itb.walker.walkRequestOrigin_Completed::total            0                       # Table walker requests started/completed, data/inst
system.cpu.itb.walker.walkRequestOrigin::total            0                       # Table walker requests started/completed, data/inst
system.cpu.itb.walker.walks                         0                       # Table walker walks requested
system.cpu.itb.write_accesses                       0                       # DTB write accesses
system.cpu.itb.write_hits                           0                       # DTB write hits
system.cpu.itb.write_misses                         0                       # DTB write misses
system.cpu.numCycles                        123228938                       # number of cpu cycles simulated
system.cpu.numFetchSuspends                         0                       # Number of times Execute suspended instruction fetching
system.cpu.numWorkItemsCompleted                    0                       # number of work items this cpu completed
system.cpu.numWorkItemsStarted                      0                       # number of work items this cpu started
system.cpu.op_class_0::No_OpClass                   0      0.00%      0.00% # Class of committed instruction
system.cpu.op_class_0::IntAlu                55111288     54.50%     54.50% # Class of committed instruction
system.cpu.op_class_0::IntMult                 167845      0.17%     54.67% # Class of committed instruction
system.cpu.op_class_0::IntDiv                       0      0.00%     54.67% # Class of committed instruction
system.cpu.op_class_0::FloatAdd                     0      0.00%     54.67% # Class of committed instruction
system.cpu.op_class_0::FloatCmp                     0      0.00%     54.67% # Class of committed instruction
system.cpu.op_class_0::FloatCvt                     0      0.00%     54.67% # Class of committed instruction
system.cpu.op_class_0::FloatMult                    0      0.00%     54.67% # Class of committed instruction
system.cpu.op_class_0::FloatMultAcc                 0      0.00%     54.67% # Class of committed instruction
system.cpu.op_class_0::FloatDiv                     0      0.00%     54.67% # Class of committed instruction
system.cpu.op_class_0::FloatMisc                    0      0.00%     54.67% # Class of committed instruction
system.cpu.op_class_0::FloatSqrt                    0      0.00%     54.67% # Class of committed instruction
system.cpu.op_class_0::SimdAdd                    380      0.00%     54.67% # Class of committed instruction
system.cpu.op_class_0::SimdAddAcc                   0      0.00%     54.67% # Class of committed instruction
system.cpu.op_class_0::SimdAlu                    470      0.00%     54.67% # Class of committed instruction
system.cpu.op_class_0::SimdCmp                    382      0.00%     54.67% # Class of committed instruction
system.cpu.op_class_0::SimdCvt                      0      0.00%     54.67% # Class of committed instruction
system.cpu.op_class_0::SimdMisc                    53      0.00%     54.67% # Class of committed instruction
system.cpu.op_class_0::SimdMult                     0      0.00%     54.67% # Class of committed instruction
system.cpu.op_class_0::SimdMultAcc                  0      0.00%     54.67% # Class of committed instruction
system.cpu.op_class_0::SimdShift                    0      0.00%     54.67% # Class of committed instruction
system.cpu.op_class_0::SimdShiftAcc                 0      0.00%     54.67% # Class of committed instruction
system.cpu.op_class_0::SimdDiv                      0      0.00%     54.67% # Class of committed instruction
system.cpu.op_class_0::SimdSqrt                     0      0.00%     54.67% # Class of committed instruction
system.cpu.op_class_0::SimdFloatAdd            282752      0.28%     54.95% # Class of committed instruction
system.cpu.op_class_0::SimdFloatAlu                 0      0.00%     54.95% # Class of committed instruction
system.cpu.op_class_0::SimdFloatCmp            266991      0.26%     55.21% # Class of committed instruction
system.cpu.op_class_0::SimdFloatCvt            163440      0.16%     55.37% # Class of committed instruction
system.cpu.op_class_0::SimdFloatDiv             54308      0.05%     55.43% # Class of committed instruction
system.cpu.op_class_0::SimdFloatMisc           505318      0.50%     55.93% # Class of committed instruction
system.cpu.op_class_0::SimdFloatMult            36718      0.04%     55.96% # Class of committed instruction
system.cpu.op_class_0::SimdFloatMultAcc         10949      0.01%     55.97% # Class of committed instruction
system.cpu.op_class_0::SimdFloatSqrt                0      0.00%     55.97% # Class of committed instruction
system.cpu.op_class_0::SimdReduceAdd                0      0.00%     55.97% # Class of committed instruction
system.cpu.op_class_0::SimdReduceAlu                0      0.00%     55.97% # Class of committed instruction
system.cpu.op_class_0::SimdReduceCmp                0      0.00%     55.97% # Class of committed instruction
system.cpu.op_class_0::SimdFloatReduceAdd            0      0.00%     55.97% # Class of committed instruction
system.cpu.op_class_0::SimdFloatReduceCmp            0      0.00%     55.97% # Class of committed instruction
system.cpu.op_class_0::SimdAes                      0      0.00%     55.97% # Class of committed instruction
system.cpu.op_class_0::SimdAesMix                   0      0.00%     55.97% # Class of committed instruction
system.cpu.op_class_0::SimdSha1Hash                 0      0.00%     55.97% # Class of committed instruction
system.cpu.op_class_0::SimdSha1Hash2                0      0.00%     55.97% # Class of committed instruction
system.cpu.op_class_0::SimdSha256Hash               0      0.00%     55.97% # Class of committed instruction
system.cpu.op_class_0::SimdSha256Hash2              0      0.00%     55.97% # Class of committed instruction
system.cpu.op_class_0::SimdShaSigma2                0      0.00%     55.97% # Class of committed instruction
system.cpu.op_class_0::SimdShaSigma3                0      0.00%     55.97% # Class of committed instruction
system.cpu.op_class_0::SimdPredAlu                  0      0.00%     55.97% # Class of committed instruction
system.cpu.op_class_0::MemRead               38138372     37.72%     93.69% # Class of committed instruction
system.cpu.op_class_0::MemWrite               6383088      6.31%    100.00% # Class of committed instruction
system.cpu.op_class_0::FloatMemRead                 0      0.00%    100.00% # Class of committed instruction
system.cpu.op_class_0::FloatMemWrite                0      0.00%    100.00% # Class of committed instruction
system.cpu.op_class_0::IprAccess                    0      0.00%    100.00% # Class of committed instruction
system.cpu.op_class_0::InstPrefetch                 0      0.00%    100.00% # Class of committed instruction
system.cpu.op_class_0::total                101122354                       # Class of committed instruction
system.cpu.tickCycles                       116212246                       # Number of cycles that the object actually ticked
system.cpu.workload.numSyscalls                    33                       # Number of system calls
system.membus.snoop_filter.hit_multi_requests            0                       # Number of requests hitting in the snoop filter with multiple (>1) holders of the requested data.
system.membus.snoop_filter.hit_multi_snoops            0                       # Number of snoops hitting in the snoop filter with multiple (>1) holders of the requested data.
system.membus.snoop_filter.hit_single_requests          290                       # Number of requests hitting in the snoop filter with a single holder of the requested data.
system.membus.snoop_filter.hit_single_snoops            0                       # Number of snoops hitting in the snoop filter with a single holder of the requested data.
system.membus.snoop_filter.tot_requests          6178                       # Total number of requests made to the snoop filter.
system.membus.snoop_filter.tot_snoops               0                       # Total number of snoops made to the snoop filter.
system.tol2bus.snoop_filter.hit_multi_requests         1739                       # Number of requests hitting in the snoop filter with multiple (>1) holders of the requested data.
system.tol2bus.snoop_filter.hit_multi_snoops           12                       # Number of snoops hitting in the snoop filter with multiple (>1) holders of the requested data.
system.tol2bus.snoop_filter.hit_single_requests       238488                       # Number of requests hitting in the snoop filter with a single holder of the requested data.
system.tol2bus.snoop_filter.hit_single_snoops          347                       # Number of snoops hitting in the snoop filter with a single holder of the requested data.
system.tol2bus.snoop_filter.tot_requests       478407                       # Total number of requests made to the snoop filter.
system.tol2bus.snoop_filter.tot_snoops            359                       # Total number of snoops made to the snoop filter.
system.membus.pwrStateResidencyTicks::UNDEFINED 123228938000                       # Cumulative time (in ticks) in various power states
system.membus.trans_dist::ReadResp               2247                       # Transaction distribution
system.membus.trans_dist::WritebackDirty           62                       # Transaction distribution
system.membus.trans_dist::CleanEvict              196                       # Transaction distribution
system.membus.trans_dist::ReadExReq              3673                       # Transaction distribution
system.membus.trans_dist::ReadExResp             3673                       # Transaction distribution
system.membus.trans_dist::ReadSharedReq          2247                       # Transaction distribution
system.membus.pkt_count_system.l2.mem_side::system.mem_ctrls.port        12098                       # Packet count per connected master and slave (bytes)
system.membus.pkt_count::total                  12098                       # Packet count per connected master and slave (bytes)
system.membus.pkt_size_system.l2.mem_side::system.mem_ctrls.port       382848                       # Cumulative packet size per connected master and slave (bytes)
system.membus.pkt_size::total                  382848                       # Cumulative packet size per connected master and slave (bytes)
system.membus.snoops                                0                       # Total snoops (count)
system.membus.snoopTraffic                          0                       # Total snoop traffic (bytes)
system.membus.snoop_fanout::samples              5920                       # Request fanout histogram
system.membus.snoop_fanout::mean                    0                       # Request fanout histogram
system.membus.snoop_fanout::stdev                   0                       # Request fanout histogram
system.membus.snoop_fanout::underflows              0      0.00%      0.00% # Request fanout histogram
system.membus.snoop_fanout::0                    5920    100.00%    100.00% # Request fanout histogram
system.membus.snoop_fanout::1                       0      0.00%    100.00% # Request fanout histogram
system.membus.snoop_fanout::overflows               0      0.00%    100.00% # Request fanout histogram
system.membus.snoop_fanout::min_value               0                       # Request fanout histogram
system.membus.snoop_fanout::max_value               0                       # Request fanout histogram
system.membus.snoop_fanout::total                5920                       # Request fanout histogram
system.membus.respLayer1.occupancy           31584500                       # Layer occupancy (ticks)
system.membus.respLayer1.utilization              0.0                       # Layer utilization (%)
system.membus.reqLayer0.occupancy             6426000                       # Layer occupancy (ticks)
system.membus.reqLayer0.utilization               0.0                       # Layer utilization (%)
system.tol2bus.pwrStateResidencyTicks::UNDEFINED 123228938000                       # Cumulative time (in ticks) in various power states
system.tol2bus.trans_dist::ReadResp            151945                       # Transaction distribution
system.tol2bus.trans_dist::WritebackDirty       233721                       # Transaction distribution
system.tol2bus.trans_dist::WritebackClean          827                       # Transaction distribution
system.tol2bus.trans_dist::CleanEvict            4526                       # Transaction distribution
system.tol2bus.trans_dist::ReadExReq            87978                       # Transaction distribution
system.tol2bus.trans_dist::ReadExResp           87978                       # Transaction distribution
system.tol2bus.trans_dist::ReadCleanReq          1754                       # Transaction distribution
system.tol2bus.trans_dist::ReadSharedReq       150191                       # Transaction distribution
system.tol2bus.pkt_count_system.cpu.icache.mem_side::system.l2.cpu_side         4335                       # Packet count per connected master and slave (bytes)
system.tol2bus.pkt_count_system.cpu.dcache.mem_side::system.l2.cpu_side       713995                       # Packet count per connected master and slave (bytes)
system.tol2bus.pkt_count::total                718330                       # Packet count per connected master and slave (bytes)
system.tol2bus.pkt_size_system.cpu.icache.mem_side::system.l2.cpu_side       165184                       # Cumulative packet size per connected master and slave (bytes)
system.tol2bus.pkt_size_system.cpu.dcache.mem_side::system.l2.cpu_side     30196992                       # Cumulative packet size per connected master and slave (bytes)
system.tol2bus.pkt_size::total               30362176                       # Cumulative packet size per connected master and slave (bytes)
system.tol2bus.snoops                             590                       # Total snoops (count)
system.tol2bus.snoopTraffic                      3968                       # Total snoop traffic (bytes)
system.tol2bus.snoop_fanout::samples           240513                       # Request fanout histogram
system.tol2bus.snoop_fanout::mean            0.008790                       # Request fanout histogram
system.tol2bus.snoop_fanout::stdev           0.093873                       # Request fanout histogram
system.tol2bus.snoop_fanout::underflows             0      0.00%      0.00% # Request fanout histogram
system.tol2bus.snoop_fanout::0                 238411     99.13%     99.13% # Request fanout histogram
system.tol2bus.snoop_fanout::1                   2090      0.87%    100.00% # Request fanout histogram
system.tol2bus.snoop_fanout::2                     12      0.00%    100.00% # Request fanout histogram
system.tol2bus.snoop_fanout::overflows              0      0.00%    100.00% # Request fanout histogram
system.tol2bus.snoop_fanout::min_value              0                       # Request fanout histogram
system.tol2bus.snoop_fanout::max_value              2                       # Request fanout histogram
system.tol2bus.snoop_fanout::total             240513                       # Request fanout histogram
system.tol2bus.reqLayer0.occupancy          947379000                       # Layer occupancy (ticks)
system.tol2bus.reqLayer0.utilization              0.8                       # Layer utilization (%)
system.tol2bus.respLayer1.occupancy         714514992                       # Layer occupancy (ticks)
system.tol2bus.respLayer1.utilization             0.6                       # Layer utilization (%)
system.tol2bus.respLayer0.occupancy           5263998                       # Layer occupancy (ticks)
system.tol2bus.respLayer0.utilization             0.0                       # Layer utilization (%)
system.voltage_domain.voltage                       1                       # Voltage in Volts
system.clk_domain.clock                          1000                       # Clock period in ticks
system.l2.pwrStateResidencyTicks::UNDEFINED 123228938000                       # Cumulative time (in ticks) in various power states
system.l2.demand_hits::.cpu.inst                  429                       # number of demand (read+write) hits
system.l2.demand_hits::.cpu.data               233564                       # number of demand (read+write) hits
system.l2.demand_hits::total                   233993                       # number of demand (read+write) hits
system.l2.overall_hits::.cpu.inst                 429                       # number of overall hits
system.l2.overall_hits::.cpu.data              233564                       # number of overall hits
system.l2.overall_hits::total                  233993                       # number of overall hits
system.l2.demand_misses::.cpu.inst               1325                       # number of demand (read+write) misses
system.l2.demand_misses::.cpu.data               4605                       # number of demand (read+write) misses
system.l2.demand_misses::total                   5930                       # number of demand (read+write) misses
system.l2.overall_misses::.cpu.inst              1325                       # number of overall misses
system.l2.overall_misses::.cpu.data              4605                       # number of overall misses
system.l2.overall_misses::total                  5930                       # number of overall misses
system.l2.demand_miss_latency::.cpu.inst    128849000                       # number of demand (read+write) miss cycles
system.l2.demand_miss_latency::.cpu.data    460066000                       # number of demand (read+write) miss cycles
system.l2.demand_miss_latency::total        588915000                       # number of demand (read+write) miss cycles
system.l2.overall_miss_latency::.cpu.inst    128849000                       # number of overall miss cycles
system.l2.overall_miss_latency::.cpu.data    460066000                       # number of overall miss cycles
system.l2.overall_miss_latency::total       588915000                       # number of overall miss cycles
system.l2.demand_accesses::.cpu.inst             1754                       # number of demand (read+write) accesses
system.l2.demand_accesses::.cpu.data           238169                       # number of demand (read+write) accesses
system.l2.demand_accesses::total               239923                       # number of demand (read+write) accesses
system.l2.overall_accesses::.cpu.inst            1754                       # number of overall (read+write) accesses
system.l2.overall_accesses::.cpu.data          238169                       # number of overall (read+write) accesses
system.l2.overall_accesses::total              239923                       # number of overall (read+write) accesses
system.l2.demand_miss_rate::.cpu.inst        0.755416                       # miss rate for demand accesses
system.l2.demand_miss_rate::.cpu.data        0.019335                       # miss rate for demand accesses
system.l2.demand_miss_rate::total            0.024716                       # miss rate for demand accesses
system.l2.overall_miss_rate::.cpu.inst       0.755416                       # miss rate for overall accesses
system.l2.overall_miss_rate::.cpu.data       0.019335                       # miss rate for overall accesses
system.l2.overall_miss_rate::total           0.024716                       # miss rate for overall accesses
system.l2.demand_avg_miss_latency::.cpu.inst 97244.528302                       # average overall miss latency
system.l2.demand_avg_miss_latency::.cpu.data 99905.754615                       # average overall miss latency
system.l2.demand_avg_miss_latency::total 99311.129848                       # average overall miss latency
system.l2.overall_avg_miss_latency::.cpu.inst 97244.528302                       # average overall miss latency
system.l2.overall_avg_miss_latency::.cpu.data 99905.754615                       # average overall miss latency
system.l2.overall_avg_miss_latency::total 99311.129848                       # average overall miss latency
system.l2.blocked_cycles::no_mshrs                  0                       # number of cycles access was blocked
system.l2.blocked_cycles::no_targets                0                       # number of cycles access was blocked
system.l2.blocked::no_mshrs                         0                       # number of cycles access was blocked
system.l2.blocked::no_targets                       0                       # number of cycles access was blocked
system.l2.avg_blocked_cycles::no_mshrs            nan                       # average number of cycles each access was blocked
system.l2.avg_blocked_cycles::no_targets          nan                       # average number of cycles each access was blocked
system.l2.writebacks::.writebacks                  62                       # number of writebacks
system.l2.writebacks::total                        62                       # number of writebacks
system.l2.demand_mshr_hits::.cpu.inst               2                       # number of demand (read+write) MSHR hits
system.l2.demand_mshr_hits::.cpu.data               8                       # number of demand (read+write) MSHR hits
system.l2.demand_mshr_hits::total                  10                       # number of demand (read+write) MSHR hits
system.l2.overall_mshr_hits::.cpu.inst              2                       # number of overall MSHR hits
system.l2.overall_mshr_hits::.cpu.data              8                       # number of overall MSHR hits
system.l2.overall_mshr_hits::total                 10                       # number of overall MSHR hits
system.l2.demand_mshr_misses::.cpu.inst          1323                       # number of demand (read+write) MSHR misses
system.l2.demand_mshr_misses::.cpu.data          4597                       # number of demand (read+write) MSHR misses
system.l2.demand_mshr_misses::total              5920                       # number of demand (read+write) MSHR misses
system.l2.overall_mshr_misses::.cpu.inst         1323                       # number of overall MSHR misses
system.l2.overall_mshr_misses::.cpu.data         4597                       # number of overall MSHR misses
system.l2.overall_mshr_misses::total             5920                       # number of overall MSHR misses
system.l2.demand_mshr_miss_latency::.cpu.inst    102226000                       # number of demand (read+write) MSHR miss cycles
system.l2.demand_mshr_miss_latency::.cpu.data    367514000                       # number of demand (read+write) MSHR miss cycles
system.l2.demand_mshr_miss_latency::total    469740000                       # number of demand (read+write) MSHR miss cycles
system.l2.overall_mshr_miss_latency::.cpu.inst    102226000                       # number of overall MSHR miss cycles
system.l2.overall_mshr_miss_latency::.cpu.data    367514000                       # number of overall MSHR miss cycles
system.l2.overall_mshr_miss_latency::total    469740000                       # number of overall MSHR miss cycles
system.l2.demand_mshr_miss_rate::.cpu.inst     0.754276                       # mshr miss rate for demand accesses
system.l2.demand_mshr_miss_rate::.cpu.data     0.019301                       # mshr miss rate for demand accesses
system.l2.demand_mshr_miss_rate::total       0.024675                       # mshr miss rate for demand accesses
system.l2.overall_mshr_miss_rate::.cpu.inst     0.754276                       # mshr miss rate for overall accesses
system.l2.overall_mshr_miss_rate::.cpu.data     0.019301                       # mshr miss rate for overall accesses
system.l2.overall_mshr_miss_rate::total      0.024675                       # mshr miss rate for overall accesses
system.l2.demand_avg_mshr_miss_latency::.cpu.inst 77268.329554                       # average overall mshr miss latency
system.l2.demand_avg_mshr_miss_latency::.cpu.data 79946.486839                       # average overall mshr miss latency
system.l2.demand_avg_mshr_miss_latency::total 79347.972973                       # average overall mshr miss latency
system.l2.overall_avg_mshr_miss_latency::.cpu.inst 77268.329554                       # average overall mshr miss latency
system.l2.overall_avg_mshr_miss_latency::.cpu.data 79946.486839                       # average overall mshr miss latency
system.l2.overall_avg_mshr_miss_latency::total 79347.972973                       # average overall mshr miss latency
system.l2.replacements                            590                       # number of replacements
system.l2.WritebackDirty_hits::.writebacks       233659                       # number of WritebackDirty hits
system.l2.WritebackDirty_hits::total           233659                       # number of WritebackDirty hits
system.l2.WritebackDirty_accesses::.writebacks       233659                       # number of WritebackDirty accesses(hits+misses)
system.l2.WritebackDirty_accesses::total       233659                       # number of WritebackDirty accesses(hits+misses)
system.l2.WritebackClean_hits::.writebacks          791                       # number of WritebackClean hits
system.l2.WritebackClean_hits::total              791                       # number of WritebackClean hits
system.l2.WritebackClean_accesses::.writebacks          791                       # number of WritebackClean accesses(hits+misses)
system.l2.WritebackClean_accesses::total          791                       # number of WritebackClean accesses(hits+misses)
system.l2.CleanEvict_mshr_misses::.writebacks           27                       # number of CleanEvict MSHR misses
system.l2.CleanEvict_mshr_misses::total            27                       # number of CleanEvict MSHR misses
system.l2.CleanEvict_mshr_miss_rate::.writebacks          inf                       # mshr miss rate for CleanEvict accesses
system.l2.CleanEvict_mshr_miss_rate::total          inf                       # mshr miss rate for CleanEvict accesses
system.l2.ReadExReq_hits::.cpu.data             84305                       # number of ReadExReq hits
system.l2.ReadExReq_hits::total                 84305                       # number of ReadExReq hits
system.l2.ReadExReq_misses::.cpu.data            3673                       # number of ReadExReq misses
system.l2.ReadExReq_misses::total                3673                       # number of ReadExReq misses
system.l2.ReadExReq_miss_latency::.cpu.data    367427000                       # number of ReadExReq miss cycles
system.l2.ReadExReq_miss_latency::total     367427000                       # number of ReadExReq miss cycles
system.l2.ReadExReq_accesses::.cpu.data         87978                       # number of ReadExReq accesses(hits+misses)
system.l2.ReadExReq_accesses::total             87978                       # number of ReadExReq accesses(hits+misses)
system.l2.ReadExReq_miss_rate::.cpu.data     0.041749                       # miss rate for ReadExReq accesses
system.l2.ReadExReq_miss_rate::total         0.041749                       # miss rate for ReadExReq accesses
system.l2.ReadExReq_avg_miss_latency::.cpu.data 100034.576640                       # average ReadExReq miss latency
system.l2.ReadExReq_avg_miss_latency::total 100034.576640                       # average ReadExReq miss latency
system.l2.ReadExReq_mshr_misses::.cpu.data         3673                       # number of ReadExReq MSHR misses
system.l2.ReadExReq_mshr_misses::total           3673                       # number of ReadExReq MSHR misses
system.l2.ReadExReq_mshr_miss_latency::.cpu.data    293967000                       # number of ReadExReq MSHR miss cycles
system.l2.ReadExReq_mshr_miss_latency::total    293967000                       # number of ReadExReq MSHR miss cycles
system.l2.ReadExReq_mshr_miss_rate::.cpu.data     0.041749                       # mshr miss rate for ReadExReq accesses
system.l2.ReadExReq_mshr_miss_rate::total     0.041749                       # mshr miss rate for ReadExReq accesses
system.l2.ReadExReq_avg_mshr_miss_latency::.cpu.data 80034.576640                       # average ReadExReq mshr miss latency
system.l2.ReadExReq_avg_mshr_miss_latency::total 80034.576640                       # average ReadExReq mshr miss latency
system.l2.ReadCleanReq_hits::.cpu.inst            429                       # number of ReadCleanReq hits
system.l2.ReadCleanReq_hits::total                429                       # number of ReadCleanReq hits
system.l2.ReadCleanReq_misses::.cpu.inst         1325                       # number of ReadCleanReq misses
system.l2.ReadCleanReq_misses::total             1325                       # number of ReadCleanReq misses
system.l2.ReadCleanReq_miss_latency::.cpu.inst    128849000                       # number of ReadCleanReq miss cycles
system.l2.ReadCleanReq_miss_latency::total    128849000                       # number of ReadCleanReq miss cycles
system.l2.ReadCleanReq_accesses::.cpu.inst         1754                       # number of ReadCleanReq accesses(hits+misses)
system.l2.ReadCleanReq_accesses::total           1754                       # number of ReadCleanReq accesses(hits+misses)
system.l2.ReadCleanReq_miss_rate::.cpu.inst     0.755416                       # miss rate for ReadCleanReq accesses
system.l2.ReadCleanReq_miss_rate::total      0.755416                       # miss rate for ReadCleanReq accesses
system.l2.ReadCleanReq_avg_miss_latency::.cpu.inst 97244.528302                       # average ReadCleanReq miss latency
system.l2.ReadCleanReq_avg_miss_latency::total 97244.528302                       # average ReadCleanReq miss latency
system.l2.ReadCleanReq_mshr_hits::.cpu.inst            2                       # number of ReadCleanReq MSHR hits
system.l2.ReadCleanReq_mshr_hits::total             2                       # number of ReadCleanReq MSHR hits
system.l2.ReadCleanReq_mshr_misses::.cpu.inst         1323                       # number of ReadCleanReq MSHR misses
system.l2.ReadCleanReq_mshr_misses::total         1323                       # number of ReadCleanReq MSHR misses
system.l2.ReadCleanReq_mshr_miss_latency::.cpu.inst    102226000                       # number of ReadCleanReq MSHR miss cycles
system.l2.ReadCleanReq_mshr_miss_latency::total    102226000                       # number of ReadCleanReq MSHR miss cycles
system.l2.ReadCleanReq_mshr_miss_rate::.cpu.inst     0.754276                       # mshr miss rate for ReadCleanReq accesses
system.l2.ReadCleanReq_mshr_miss_rate::total     0.754276                       # mshr miss rate for ReadCleanReq accesses
system.l2.ReadCleanReq_avg_mshr_miss_latency::.cpu.inst 77268.329554                       # average ReadCleanReq mshr miss latency
system.l2.ReadCleanReq_avg_mshr_miss_latency::total 77268.329554                       # average ReadCleanReq mshr miss latency
system.l2.ReadSharedReq_hits::.cpu.data        149259                       # number of ReadSharedReq hits
system.l2.ReadSharedReq_hits::total            149259                       # number of ReadSharedReq hits
system.l2.ReadSharedReq_misses::.cpu.data          932                       # number of ReadSharedReq misses
system.l2.ReadSharedReq_misses::total             932                       # number of ReadSharedReq misses
system.l2.ReadSharedReq_miss_latency::.cpu.data     92639000                       # number of ReadSharedReq miss cycles
system.l2.ReadSharedReq_miss_latency::total     92639000                       # number of ReadSharedReq miss cycles
system.l2.ReadSharedReq_accesses::.cpu.data       150191                       # number of ReadSharedReq accesses(hits+misses)
system.l2.ReadSharedReq_accesses::total        150191                       # number of ReadSharedReq accesses(hits+misses)
system.l2.ReadSharedReq_miss_rate::.cpu.data     0.006205                       # miss rate for ReadSharedReq accesses
system.l2.ReadSharedReq_miss_rate::total     0.006205                       # miss rate for ReadSharedReq accesses
system.l2.ReadSharedReq_avg_miss_latency::.cpu.data 99398.068670                       # average ReadSharedReq miss latency
system.l2.ReadSharedReq_avg_miss_latency::total 99398.068670                       # average ReadSharedReq miss latency
system.l2.ReadSharedReq_mshr_hits::.cpu.data            8                       # number of ReadSharedReq MSHR hits
system.l2.ReadSharedReq_mshr_hits::total            8                       # number of ReadSharedReq MSHR hits
system.l2.ReadSharedReq_mshr_misses::.cpu.data          924                       # number of ReadSharedReq MSHR misses
system.l2.ReadSharedReq_mshr_misses::total          924                       # number of ReadSharedReq MSHR misses
system.l2.ReadSharedReq_mshr_miss_latency::.cpu.data     73547000                       # number of ReadSharedReq MSHR miss cycles
system.l2.ReadSharedReq_mshr_miss_latency::total     73547000                       # number of ReadSharedReq MSHR miss cycles
system.l2.ReadSharedReq_mshr_miss_rate::.cpu.data     0.006152                       # mshr miss rate for ReadSharedReq accesses
system.l2.ReadSharedReq_mshr_miss_rate::total     0.006152                       # mshr miss rate for ReadSharedReq accesses
system.l2.ReadSharedReq_avg_mshr_miss_latency::.cpu.data 79596.320346                       # average ReadSharedReq mshr miss latency
system.l2.ReadSharedReq_avg_mshr_miss_latency::total 79596.320346                       # average ReadSharedReq mshr miss latency
system.l2.tags.pwrStateResidencyTicks::UNDEFINED 123228938000                       # Cumulative time (in ticks) in various power states
system.l2.tags.tagsinuse                  5216.853588                       # Cycle average of tags in use
system.l2.tags.total_refs                      476631                       # Total number of references to valid blocks.
system.l2.tags.sampled_refs                      6002                       # Sample count of references to valid blocks.
system.l2.tags.avg_refs                     79.412029                       # Average number of references to valid blocks.
system.l2.tags.warmup_cycle                     87000                       # Cycle when the warmup percentage was hit.
system.l2.tags.occ_blocks::.writebacks      64.896801                       # Average occupied blocks per requestor
system.l2.tags.occ_blocks::.cpu.inst      1028.054923                       # Average occupied blocks per requestor
system.l2.tags.occ_blocks::.cpu.data      4123.901864                       # Average occupied blocks per requestor
system.l2.tags.occ_percent::.writebacks      0.007922                       # Average percentage of cache occupancy
system.l2.tags.occ_percent::.cpu.inst        0.125495                       # Average percentage of cache occupancy
system.l2.tags.occ_percent::.cpu.data        0.503406                       # Average percentage of cache occupancy
system.l2.tags.occ_percent::total            0.636823                       # Average percentage of cache occupancy
system.l2.tags.occ_task_id_blocks::1024          5412                       # Occupied blocks per task id
system.l2.tags.age_task_id_blocks_1024::2            2                       # Occupied blocks per task id
system.l2.tags.age_task_id_blocks_1024::3            7                       # Occupied blocks per task id
system.l2.tags.age_task_id_blocks_1024::4         5403                       # Occupied blocks per task id
system.l2.tags.occ_task_id_percent::1024     0.660645                       # Percentage of cache occupancy per task id
system.l2.tags.tag_accesses                    959338                       # Number of tag accesses
system.l2.tags.data_accesses                   959338                       # Number of data accesses
system.cpu_voltage_domain.voltage                   1                       # Voltage in Volts
system.mem_ctrls.pwrStateResidencyTicks::UNDEFINED 123228938000                       # Cumulative time (in ticks) in various power states
system.mem_ctrls.bytes_read::.cpu.inst          84672                       # Number of bytes read from this memory
system.mem_ctrls.bytes_read::.cpu.data         294208                       # Number of bytes read from this memory
system.mem_ctrls.bytes_read::total             378880                       # Number of bytes read from this memory
system.mem_ctrls.bytes_inst_read::.cpu.inst        84672                       # Number of instructions bytes read from this memory
system.mem_ctrls.bytes_inst_read::total         84672                       # Number of instructions bytes read from this memory
system.mem_ctrls.bytes_written::.writebacks         3968                       # Number of bytes written to this memory
system.mem_ctrls.bytes_written::total            3968                       # Number of bytes written to this memory
system.mem_ctrls.num_reads::.cpu.inst            1323                       # Number of read requests responded to by this memory
system.mem_ctrls.num_reads::.cpu.data            4597                       # Number of read requests responded to by this memory
system.mem_ctrls.num_reads::total                5920                       # Number of read requests responded to by this memory
system.mem_ctrls.num_writes::.writebacks           62                       # Number of write requests responded to by this memory
system.mem_ctrls.num_writes::total                 62                       # Number of write requests responded to by this memory
system.mem_ctrls.bw_read::.cpu.inst            687111                       # Total read bandwidth from this memory (bytes/s)
system.mem_ctrls.bw_read::.cpu.data           2387491                       # Total read bandwidth from this memory (bytes/s)
system.mem_ctrls.bw_read::total               3074602                       # Total read bandwidth from this memory (bytes/s)
system.mem_ctrls.bw_inst_read::.cpu.inst       687111                       # Instruction read bandwidth from this memory (bytes/s)
system.mem_ctrls.bw_inst_read::total           687111                       # Instruction read bandwidth from this memory (bytes/s)
system.mem_ctrls.bw_write::.writebacks          32200                       # Write bandwidth from this memory (bytes/s)
system.mem_ctrls.bw_write::total                32200                       # Write bandwidth from this memory (bytes/s)
system.mem_ctrls.bw_total::.writebacks          32200                       # Total bandwidth to/from this memory (bytes/s)
system.mem_ctrls.bw_total::.cpu.inst           687111                       # Total bandwidth to/from this memory (bytes/s)
system.mem_ctrls.bw_total::.cpu.data          2387491                       # Total bandwidth to/from this memory (bytes/s)
system.mem_ctrls.bw_total::total              3106803                       # Total bandwidth to/from this memory (bytes/s)
system.mem_ctrls.avgPriority_.writebacks::samples        42.00                       # Average QoS priority value for accepted requests
system.mem_ctrls.avgPriority_.cpu.inst::samples      1323.00                       # Average QoS priority value for accepted requests
system.mem_ctrls.avgPriority_.cpu.data::samples      4534.00                       # Average QoS priority value for accepted requests
system.mem_ctrls.priorityMinLatency      0.000000018750                       # per QoS priority minimum request to response latency (s)
system.mem_ctrls.priorityMaxLatency      0.033241298500                       # per QoS priority maximum request to response latency (s)
system.mem_ctrls.numReadWriteTurnArounds            1                       # Number of turnarounds from READ to WRITE
system.mem_ctrls.numWriteReadTurnArounds            1                       # Number of turnarounds from WRITE to READ
system.mem_ctrls.numStayReadState               43420                       # Number of times bus staying in READ state
system.mem_ctrls.numStayWriteState                 17                       # Number of times bus staying in WRITE state
system.mem_ctrls.readReqs                        5920                       # Number of read requests accepted
system.mem_ctrls.writeReqs                         62                       # Number of write requests accepted
system.mem_ctrls.readBursts                      5920                       # Number of DRAM read bursts, including those serviced by the write queue
system.mem_ctrls.writeBursts                       62                       # Number of DRAM write bursts, including those merged in the write queue
system.mem_ctrls.servicedByWrQ                     63                       # Number of DRAM read bursts serviced by the write queue
system.mem_ctrls.mergedWrBursts                    20                       # Number of DRAM write bursts merged with an existing one
system.mem_ctrls.neitherReadNorWriteReqs            0                       # Number of requests that are neither read nor write
system.mem_ctrls.perBankRdBursts::0               361                       # Per bank write bursts
system.mem_ctrls.perBankRdBursts::1               322                       # Per bank write bursts
system.mem_ctrls.perBankRdBursts::2               341                       # Per bank write bursts
system.mem_ctrls.perBankRdBursts::3               324                       # Per bank write bursts
system.mem_ctrls.perBankRdBursts::4               322                       # Per bank write bursts
system.mem_ctrls.perBankRdBursts::5               539                       # Per bank write bursts
system.mem_ctrls.perBankRdBursts::6               361                       # Per bank write bursts
system.mem_ctrls.perBankRdBursts::7               448                       # Per bank write bursts
system.mem_ctrls.perBankRdBursts::8               278                       # Per bank write bursts
system.mem_ctrls.perBankRdBursts::9               341                       # Per bank write bursts
system.mem_ctrls.perBankRdBursts::10              456                       # Per bank write bursts
system.mem_ctrls.perBankRdBursts::11              387                       # Per bank write bursts
system.mem_ctrls.perBankRdBursts::12              421                       # Per bank write bursts
system.mem_ctrls.perBankRdBursts::13              349                       # Per bank write bursts
system.mem_ctrls.perBankRdBursts::14              308                       # Per bank write bursts
system.mem_ctrls.perBankRdBursts::15              299                       # Per bank write bursts
system.mem_ctrls.perBankWrBursts::0                 0                       # Per bank write bursts
system.mem_ctrls.perBankWrBursts::1                 0                       # Per bank write bursts
system.mem_ctrls.perBankWrBursts::2                 0                       # Per bank write bursts
system.mem_ctrls.perBankWrBursts::3                 0                       # Per bank write bursts
system.mem_ctrls.perBankWrBursts::4                 0                       # Per bank write bursts
system.mem_ctrls.perBankWrBursts::5                15                       # Per bank write bursts
system.mem_ctrls.perBankWrBursts::6                 0                       # Per bank write bursts
system.mem_ctrls.perBankWrBursts::7                 3                       # Per bank write bursts
system.mem_ctrls.perBankWrBursts::8                 0                       # Per bank write bursts
system.mem_ctrls.perBankWrBursts::9                 0                       # Per bank write bursts
system.mem_ctrls.perBankWrBursts::10                0                       # Per bank write bursts
system.mem_ctrls.perBankWrBursts::11                0                       # Per bank write bursts
system.mem_ctrls.perBankWrBursts::12                0                       # Per bank write bursts
system.mem_ctrls.perBankWrBursts::13                0                       # Per bank write bursts
system.mem_ctrls.perBankWrBursts::14                0                       # Per bank write bursts
system.mem_ctrls.perBankWrBursts::15                0                       # Per bank write bursts
system.mem_ctrls.avgRdQLen                       1.01                       # Average read queue length when enqueuing
system.mem_ctrls.avgWrQLen                      22.54                       # Average write queue length when enqueuing
system.mem_ctrls.totQLat                     56545750                       # Total ticks spent queuing
system.mem_ctrls.totBusLat                   29285000                       # Total ticks spent in databus transfers
system.mem_ctrls.totMemAccLat               166364500                       # Total ticks spent from burst creation until serviced by the DRAM
system.mem_ctrls.avgQLat                      9654.39                       # Average queueing delay per DRAM burst
system.mem_ctrls.avgBusLat                    5000.00                       # Average bus latency per DRAM burst
system.mem_ctrls.avgMemAccLat                28404.39                       # Average memory access latency per DRAM burst
system.mem_ctrls.numRdRetry                         0                       # Number of times read queue was full causing retry
system.mem_ctrls.numWrRetry                         0                       # Number of times write queue was full causing retry
system.mem_ctrls.readRowHits                     3730                       # Number of row buffer hits during reads
system.mem_ctrls.writeRowHits                      16                       # Number of row buffer hits during writes
system.mem_ctrls.readRowHitRate                 63.68                       # Row buffer hit rate for reads
system.mem_ctrls.writeRowHitRate                38.10                       # Row buffer hit rate for writes
system.mem_ctrls.readPktSize::0                     0                       # Read request sizes (log2)
system.mem_ctrls.readPktSize::1                     0                       # Read request sizes (log2)
system.mem_ctrls.readPktSize::2                     0                       # Read request sizes (log2)
system.mem_ctrls.readPktSize::3                     0                       # Read request sizes (log2)
system.mem_ctrls.readPktSize::4                     0                       # Read request sizes (log2)
system.mem_ctrls.readPktSize::5                     0                       # Read request sizes (log2)
system.mem_ctrls.readPktSize::6                  5920                       # Read request sizes (log2)
system.mem_ctrls.writePktSize::0                    0                       # Write request sizes (log2)
system.mem_ctrls.writePktSize::1                    0                       # Write request sizes (log2)
system.mem_ctrls.writePktSize::2                    0                       # Write request sizes (log2)
system.mem_ctrls.writePktSize::3                    0                       # Write request sizes (log2)
system.mem_ctrls.writePktSize::4                    0                       # Write request sizes (log2)
system.mem_ctrls.writePktSize::5                    0                       # Write request sizes (log2)
system.mem_ctrls.writePktSize::6                   62                       # Write request sizes (log2)
system.mem_ctrls.rdQLenPdf::0                    5451                       # What read queue length does an incoming req see
system.mem_ctrls.rdQLenPdf::1                     394                       # What read queue length does an incoming req see
system.mem_ctrls.rdQLenPdf::2                      12                       # What read queue length does an incoming req see
system.mem_ctrls.rdQLenPdf::3                       0                       # What read queue length does an incoming req see
system.mem_ctrls.rdQLenPdf::4                       0                       # What read queue length does an incoming req see
system.mem_ctrls.rdQLenPdf::5                       0                       # What read queue length does an incoming req see
system.mem_ctrls.rdQLenPdf::6                       0                       # What read queue length does an incoming req see
system.mem_ctrls.rdQLenPdf::7                       0                       # What read queue length does an incoming req see
system.mem_ctrls.rdQLenPdf::8                       0                       # What read queue length does an incoming req see
system.mem_ctrls.rdQLenPdf::9                       0                       # What read queue length does an incoming req see
system.mem_ctrls.rdQLenPdf::10                      0                       # What read queue length does an incoming req see
system.mem_ctrls.rdQLenPdf::11                      0                       # What read queue length does an incoming req see
system.mem_ctrls.rdQLenPdf::12                      0                       # What read queue length does an incoming req see
system.mem_ctrls.rdQLenPdf::13                      0                       # What read queue length does an incoming req see
system.mem_ctrls.rdQLenPdf::14                      0                       # What read queue length does an incoming req see
system.mem_ctrls.rdQLenPdf::15                      0                       # What read queue length does an incoming req see
system.mem_ctrls.rdQLenPdf::16                      0                       # What read queue length does an incoming req see
system.mem_ctrls.rdQLenPdf::17                      0                       # What read queue length does an incoming req see
system.mem_ctrls.rdQLenPdf::18                      0                       # What read queue length does an incoming req see
system.mem_ctrls.rdQLenPdf::19                      0                       # What read queue length does an incoming req see
system.mem_ctrls.rdQLenPdf::20                      0                       # What read queue length does an incoming req see
system.mem_ctrls.rdQLenPdf::21                      0                       # What read queue length does an incoming req see
system.mem_ctrls.rdQLenPdf::22                      0                       # What read queue length does an incoming req see
system.mem_ctrls.rdQLenPdf::23                      0                       # What read queue length does an incoming req see
system.mem_ctrls.rdQLenPdf::24                      0                       # What read queue length does an incoming req see
system.mem_ctrls.rdQLenPdf::25                      0                       # What read queue length does an incoming req see
system.mem_ctrls.rdQLenPdf::26                      0                       # What read queue length does an incoming req see
system.mem_ctrls.rdQLenPdf::27                      0                       # What read queue length does an incoming req see
system.mem_ctrls.rdQLenPdf::28                      0                       # What read queue length does an incoming req see
system.mem_ctrls.rdQLenPdf::29                      0                       # What read queue length does an incoming req see
system.mem_ctrls.rdQLenPdf::30                      0                       # What read queue length does an incoming req see
system.mem_ctrls.rdQLenPdf::31                      0                       # What read queue length does an incoming req see
system.mem_ctrls.wrQLenPdf::0                       1                       # What write queue length does an incoming req see
system.mem_ctrls.wrQLenPdf::1                       1                       # What write queue length does an incoming req see
system.mem_ctrls.wrQLenPdf::2                       1                       # What write queue length does an incoming req see
system.mem_ctrls.wrQLenPdf::3                       1                       # What write queue length does an incoming req see
system.mem_ctrls.wrQLenPdf::4                       1                       # What write queue length does an incoming req see
system.mem_ctrls.wrQLenPdf::5                       1                       # What write queue length does an incoming req see
system.mem_ctrls.wrQLenPdf::6                       1                       # What write queue length does an incoming req see
system.mem_ctrls.wrQLenPdf::7                       1                       # What write queue length does an incoming req see
system.mem_ctrls.wrQLenPdf::8                       1                       # What write queue length does an incoming req see
system.mem_ctrls.wrQLenPdf::9                       1                       # What write queue length does an incoming req see
system.mem_ctrls.wrQLenPdf::10                      1                       # What write queue length does an incoming req see
system.mem_ctrls.wrQLenPdf::11                      1                       # What write queue length does an incoming req see
system.mem_ctrls.wrQLenPdf::12                      1                       # What write queue length does an incoming req see
system.mem_ctrls.wrQLenPdf::13                      1                       # What write queue length does an incoming req see
system.mem_ctrls.wrQLenPdf::14                      1                       # What write queue length does an incoming req see
system.mem_ctrls.wrQLenPdf::15                      2                       # What write queue length does an incoming req see
system.mem_ctrls.wrQLenPdf::16                      2                       # What write queue length does an incoming req see
system.mem_ctrls.wrQLenPdf::17                      2                       # What write queue length does an incoming req see
system.mem_ctrls.wrQLenPdf::18                      2                       # What write queue length does an incoming req see
system.mem_ctrls.wrQLenPdf::19                      2                       # What write queue length does an incoming req see
system.mem_ctrls.wrQLenPdf::20                      2                       # What write queue length does an incoming req see
system.mem_ctrls.wrQLenPdf::21                      2                       # What write queue length does an incoming req see
system.mem_ctrls.wrQLenPdf::22                      2                       # What write queue length does an incoming req see
system.mem_ctrls.wrQLenPdf::23                      2                       # What write queue length does an incoming req see
system.mem_ctrls.wrQLenPdf::24                      1                       # What write queue length does an incoming req see
system.mem_ctrls.wrQLenPdf::25                      1                       # What write queue length does an incoming req see
system.mem_ctrls.wrQLenPdf::26                      1                       # What write queue length does an incoming req see
system.mem_ctrls.wrQLenPdf::27                      1                       # What write queue length does an incoming req see
system.mem_ctrls.wrQLenPdf::28                      1                       # What write queue length does an incoming req see
system.mem_ctrls.wrQLenPdf::29                      1                       # What write queue length does an incoming req see
system.mem_ctrls.wrQLenPdf::30                      1                       # What write queue length does an incoming req see
system.mem_ctrls.wrQLenPdf::31                      1                       # What write queue length does an incoming req see
system.mem_ctrls.wrQLenPdf::32                      1                       # What write queue length does an incoming req see
system.mem_ctrls.wrQLenPdf::33                      0                       # What write queue length does an incoming req see
system.mem_ctrls.wrQLenPdf::34                      0                       # What write queue length does an incoming req see
system.mem_ctrls.wrQLenPdf::35                      0                       # What write queue length does an incoming req see
system.mem_ctrls.wrQLenPdf::36                      0                       # What write queue length does an incoming req see
system.mem_ctrls.wrQLenPdf::37                      0                       # What write queue length does an incoming req see
system.mem_ctrls.wrQLenPdf::38                      0                       # What write queue length does an incoming req see
system.mem_ctrls.wrQLenPdf::39                      0                       # What write queue length does an incoming req see
system.mem_ctrls.wrQLenPdf::40                      0                       # What write queue length does an incoming req see
system.mem_ctrls.wrQLenPdf::41                      0                       # What write queue length does an incoming req see
system.mem_ctrls.wrQLenPdf::42                      0                       # What write queue length does an incoming req see
system.mem_ctrls.wrQLenPdf::43                      0                       # What write queue length does an incoming req see
system.mem_ctrls.wrQLenPdf::44                      0                       # What write queue length does an incoming req see
system.mem_ctrls.wrQLenPdf::45                      0                       # What write queue length does an incoming req see
system.mem_ctrls.wrQLenPdf::46                      0                       # What write queue length does an incoming req see
system.mem_ctrls.wrQLenPdf::47                      0                       # What write queue length does an incoming req see
system.mem_ctrls.wrQLenPdf::48                      0                       # What write queue length does an incoming req see
system.mem_ctrls.wrQLenPdf::49                      0                       # What write queue length does an incoming req see
system.mem_ctrls.wrQLenPdf::50                      0                       # What write queue length does an incoming req see
system.mem_ctrls.wrQLenPdf::51                      0                       # What write queue length does an incoming req see
system.mem_ctrls.wrQLenPdf::52                      0                       # What write queue length does an incoming req see
system.mem_ctrls.wrQLenPdf::53                      0                       # What write queue length does an incoming req see
system.mem_ctrls.wrQLenPdf::54                      0                       # What write queue length does an incoming req see
system.mem_ctrls.wrQLenPdf::55                      0                       # What write queue length does an incoming req see
system.mem_ctrls.wrQLenPdf::56                      0                       # What write queue length does an incoming req see
system.mem_ctrls.wrQLenPdf::57                      0                       # What write queue length does an incoming req see
system.mem_ctrls.wrQLenPdf::58                      0                       # What write queue length does an incoming req see
system.mem_ctrls.wrQLenPdf::59                      0                       # What write queue length does an incoming req see
system.mem_ctrls.wrQLenPdf::60                      0                       # What write queue length does an incoming req see
system.mem_ctrls.wrQLenPdf::61                      0                       # What write queue length does an incoming req see
system.mem_ctrls.wrQLenPdf::62                      0                       # What write queue length does an incoming req see
system.mem_ctrls.wrQLenPdf::63                      0                       # What write queue length does an incoming req see
system.mem_ctrls.bytesPerActivate::samples         2129                       # Bytes accessed per row activation
system.mem_ctrls.bytesPerActivate::mean    176.608736                       # Bytes accessed per row activation
system.mem_ctrls.bytesPerActivate::gmean   111.719326                       # Bytes accessed per row activation
system.mem_ctrls.bytesPerActivate::stdev   239.782839                       # Bytes accessed per row activation
system.mem_ctrls.bytesPerActivate::0-127         1196     56.18%     56.18% # Bytes accessed per row activation
system.mem_ctrls.bytesPerActivate::128-255          580     27.24%     83.42% # Bytes accessed per row activation
system.mem_ctrls.bytesPerActivate::256-383          113      5.31%     88.73% # Bytes accessed per row activation
system.mem_ctrls.bytesPerActivate::384-511           45      2.11%     90.84% # Bytes accessed per row activation
system.mem_ctrls.bytesPerActivate::512-639           39      1.83%     92.67% # Bytes accessed per row activation
system.mem_ctrls.bytesPerActivate::640-767           18      0.85%     93.52% # Bytes accessed per row activation
system.mem_ctrls.bytesPerActivate::768-895           14      0.66%     94.18% # Bytes accessed per row activation
system.mem_ctrls.bytesPerActivate::896-1023           13      0.61%     94.79% # Bytes accessed per row activation
system.mem_ctrls.bytesPerActivate::1024-1151          111      5.21%    100.00% # Bytes accessed per row activation
system.mem_ctrls.bytesPerActivate::total         2129                       # Bytes accessed per row activation
system.mem_ctrls.rdPerTurnAround::samples            1                       # Reads before turning the bus around for writes
system.mem_ctrls.rdPerTurnAround::mean           5642                       # Reads before turning the bus around for writes
system.mem_ctrls.rdPerTurnAround::gmean   5642.000000                       # Reads before turning the bus around for writes
system.mem_ctrls.rdPerTurnAround::stdev           nan                       # Reads before turning the bus around for writes
system.mem_ctrls.rdPerTurnAround::5632-5887            1    100.00%    100.00% # Reads before turning the bus around for writes
system.mem_ctrls.rdPerTurnAround::total             1                       # Reads before turning the bus around for writes
system.mem_ctrls.wrPerTurnAround::samples            1                       # Writes before turning the bus around for reads
[...]
system.cpu.icache.tags.occ_percent::total     0.901361                       # Average percentage of cache occupancy
system.cpu.icache.tags.occ_task_id_blocks::1024          927                       # Occupied blocks per task id
system.cpu.icache.tags.age_task_id_blocks_1024::3            1                       # Occupied blocks per task id
system.cpu.icache.tags.age_task_id_blocks_1024::4          926                       # Occupied blocks per task id
system.cpu.icache.tags.occ_task_id_percent::1024     0.905273                       # Percentage of cache occupancy per task id
system.cpu.icache.tags.tag_accesses          34299714                       # Number of tag accesses
system.cpu.icache.tags.data_accesses         34299714                       # Number of data accesses
system.cpu.dtb.walker.pwrStateResidencyTicks::UNDEFINED 123228938000                       # Cumulative time (in ticks) in various power states
system.cpu.dtb.stage2_mmu.stage2_tlb.walker.pwrStateResidencyTicks::UNDEFINED 123228938000                       # Cumulative time (in ticks) in various power states
system.cpu.dcache.pwrStateResidencyTicks::UNDEFINED 123228938000                       # Cumulative time (in ticks) in various power states
system.cpu.dcache.demand_hits::.cpu.data     43588901                       # number of demand (read+write) hits
system.cpu.dcache.demand_hits::total         43588901                       # number of demand (read+write) hits
system.cpu.dcache.overall_hits::.cpu.data     43597408                       # number of overall hits
system.cpu.dcache.overall_hits::total        43597408                       # number of overall hits
system.cpu.dcache.demand_misses::.cpu.data       253152                       # number of demand (read+write) misses
system.cpu.dcache.demand_misses::total         253152                       # number of demand (read+write) misses
system.cpu.dcache.overall_misses::.cpu.data       253339                       # number of overall misses
system.cpu.dcache.overall_misses::total        253339                       # number of overall misses
system.cpu.dcache.demand_miss_latency::.cpu.data   8491416000                       # number of demand (read+write) miss cycles
system.cpu.dcache.demand_miss_latency::total   8491416000                       # number of demand (read+write) miss cycles
system.cpu.dcache.overall_miss_latency::.cpu.data   8491416000                       # number of overall miss cycles
system.cpu.dcache.overall_miss_latency::total   8491416000                       # number of overall miss cycles
system.cpu.dcache.demand_accesses::.cpu.data     43842053                       # number of demand (read+write) accesses
system.cpu.dcache.demand_accesses::total     43842053                       # number of demand (read+write) accesses
system.cpu.dcache.overall_accesses::.cpu.data     43850747                       # number of overall (read+write) accesses
system.cpu.dcache.overall_accesses::total     43850747                       # number of overall (read+write) accesses
system.cpu.dcache.demand_miss_rate::.cpu.data     0.005774                       # miss rate for demand accesses
system.cpu.dcache.demand_miss_rate::total     0.005774                       # miss rate for demand accesses
system.cpu.dcache.overall_miss_rate::.cpu.data     0.005777                       # miss rate for overall accesses
system.cpu.dcache.overall_miss_rate::total     0.005777                       # miss rate for overall accesses
system.cpu.dcache.demand_avg_miss_latency::.cpu.data 33542.756921                       # average overall miss latency
system.cpu.dcache.demand_avg_miss_latency::total 33542.756921                       # average overall miss latency
system.cpu.dcache.overall_avg_miss_latency::.cpu.data 33517.997624                       # average overall miss latency
system.cpu.dcache.overall_avg_miss_latency::total 33517.997624                       # average overall miss latency
system.cpu.dcache.blocked_cycles::no_mshrs           82                       # number of cycles access was blocked
system.cpu.dcache.blocked_cycles::no_targets            0                       # number of cycles access was blocked
system.cpu.dcache.blocked::no_mshrs                 4                       # number of cycles access was blocked
system.cpu.dcache.blocked::no_targets               0                       # number of cycles access was blocked
system.cpu.dcache.avg_blocked_cycles::no_mshrs    20.500000                       # average number of cycles each access was blocked
system.cpu.dcache.avg_blocked_cycles::no_targets          nan                       # average number of cycles each access was blocked
system.cpu.dcache.writebacks::.writebacks       233659                       # number of writebacks
system.cpu.dcache.writebacks::total            233659                       # number of writebacks
system.cpu.dcache.demand_mshr_hits::.cpu.data        15155                       # number of demand (read+write) MSHR hits
system.cpu.dcache.demand_mshr_hits::total        15155                       # number of demand (read+write) MSHR hits
system.cpu.dcache.overall_mshr_hits::.cpu.data        15155                       # number of overall MSHR hits
system.cpu.dcache.overall_mshr_hits::total        15155                       # number of overall MSHR hits
system.cpu.dcache.demand_mshr_misses::.cpu.data       237997                       # number of demand (read+write) MSHR misses
system.cpu.dcache.demand_mshr_misses::total       237997                       # number of demand (read+write) MSHR misses
system.cpu.dcache.overall_mshr_misses::.cpu.data       238168                       # number of overall MSHR misses
system.cpu.dcache.overall_mshr_misses::total       238168                       # number of overall MSHR misses
system.cpu.dcache.demand_mshr_miss_latency::.cpu.data   7440559000                       # number of demand (read+write) MSHR miss cycles
system.cpu.dcache.demand_mshr_miss_latency::total   7440559000                       # number of demand (read+write) MSHR miss cycles
system.cpu.dcache.overall_mshr_miss_latency::.cpu.data   7451261000                       # number of overall MSHR miss cycles
system.cpu.dcache.overall_mshr_miss_latency::total   7451261000                       # number of overall MSHR miss cycles
system.cpu.dcache.demand_mshr_miss_rate::.cpu.data     0.005429                       # mshr miss rate for demand accesses
system.cpu.dcache.demand_mshr_miss_rate::total     0.005429                       # mshr miss rate for demand accesses
system.cpu.dcache.overall_mshr_miss_rate::.cpu.data     0.005431                       # mshr miss rate for overall accesses
system.cpu.dcache.overall_mshr_miss_rate::total     0.005431                       # mshr miss rate for overall accesses
system.cpu.dcache.demand_avg_mshr_miss_latency::.cpu.data 31263.247016                       # average overall mshr miss latency
system.cpu.dcache.demand_avg_mshr_miss_latency::total 31263.247016                       # average overall mshr miss latency
system.cpu.dcache.overall_avg_mshr_miss_latency::.cpu.data 31285.735279                       # average overall mshr miss latency
system.cpu.dcache.overall_avg_mshr_miss_latency::total 31285.735279                       # average overall mshr miss latency
system.cpu.dcache.replacements                 237657                       # number of replacements
system.cpu.dcache.ReadReq_hits::.cpu.data     37360374                       # number of ReadReq hits
system.cpu.dcache.ReadReq_hits::total        37360374                       # number of ReadReq hits
system.cpu.dcache.ReadReq_misses::.cpu.data       156785                       # number of ReadReq misses
system.cpu.dcache.ReadReq_misses::total        156785                       # number of ReadReq misses
system.cpu.dcache.ReadReq_miss_latency::.cpu.data   5299275000                       # number of ReadReq miss cycles
system.cpu.dcache.ReadReq_miss_latency::total   5299275000                       # number of ReadReq miss cycles
system.cpu.dcache.ReadReq_accesses::.cpu.data     37517159                       # number of ReadReq accesses(hits+misses)
system.cpu.dcache.ReadReq_accesses::total     37517159                       # number of ReadReq accesses(hits+misses)
system.cpu.dcache.ReadReq_miss_rate::.cpu.data     0.004179                       # miss rate for ReadReq accesses
system.cpu.dcache.ReadReq_miss_rate::total     0.004179                       # miss rate for ReadReq accesses
system.cpu.dcache.ReadReq_avg_miss_latency::.cpu.data 33799.630067                       # average ReadReq miss latency
system.cpu.dcache.ReadReq_avg_miss_latency::total 33799.630067                       # average ReadReq miss latency
system.cpu.dcache.ReadReq_mshr_hits::.cpu.data         6766                       # number of ReadReq MSHR hits
system.cpu.dcache.ReadReq_mshr_hits::total         6766                       # number of ReadReq MSHR hits
system.cpu.dcache.ReadReq_mshr_misses::.cpu.data       150019                       # number of ReadReq MSHR misses
system.cpu.dcache.ReadReq_mshr_misses::total       150019                       # number of ReadReq MSHR misses
system.cpu.dcache.ReadReq_mshr_miss_latency::.cpu.data   4773729000                       # number of ReadReq MSHR miss cycles
system.cpu.dcache.ReadReq_mshr_miss_latency::total   4773729000                       # number of ReadReq MSHR miss cycles
system.cpu.dcache.ReadReq_mshr_miss_rate::.cpu.data     0.003999                       # mshr miss rate for ReadReq accesses
system.cpu.dcache.ReadReq_mshr_miss_rate::total     0.003999                       # mshr miss rate for ReadReq accesses
system.cpu.dcache.ReadReq_avg_mshr_miss_latency::.cpu.data 31820.829362                       # average ReadReq mshr miss latency
system.cpu.dcache.ReadReq_avg_mshr_miss_latency::total 31820.829362                       # average ReadReq mshr miss latency
system.cpu.dcache.WriteReq_hits::.cpu.data      6228527                       # number of WriteReq hits
system.cpu.dcache.WriteReq_hits::total        6228527                       # number of WriteReq hits
system.cpu.dcache.WriteReq_misses::.cpu.data        96367                       # number of WriteReq misses
system.cpu.dcache.WriteReq_misses::total        96367                       # number of WriteReq misses
system.cpu.dcache.WriteReq_miss_latency::.cpu.data   3192141000                       # number of WriteReq miss cycles
system.cpu.dcache.WriteReq_miss_latency::total   3192141000                       # number of WriteReq miss cycles
system.cpu.dcache.WriteReq_accesses::.cpu.data      6324894                       # number of WriteReq accesses(hits+misses)
system.cpu.dcache.WriteReq_accesses::total      6324894                       # number of WriteReq accesses(hits+misses)
system.cpu.dcache.WriteReq_miss_rate::.cpu.data     0.015236                       # miss rate for WriteReq accesses
system.cpu.dcache.WriteReq_miss_rate::total     0.015236                       # miss rate for WriteReq accesses
system.cpu.dcache.WriteReq_avg_miss_latency::.cpu.data 33124.835265                       # average WriteReq miss latency
system.cpu.dcache.WriteReq_avg_miss_latency::total 33124.835265                       # average WriteReq miss latency
system.cpu.dcache.WriteReq_mshr_hits::.cpu.data         8389                       # number of WriteReq MSHR hits
system.cpu.dcache.WriteReq_mshr_hits::total         8389                       # number of WriteReq MSHR hits
system.cpu.dcache.WriteReq_mshr_misses::.cpu.data        87978                       # number of WriteReq MSHR misses
system.cpu.dcache.WriteReq_mshr_misses::total        87978                       # number of WriteReq MSHR misses
system.cpu.dcache.WriteReq_mshr_miss_latency::.cpu.data   2666830000                       # number of WriteReq MSHR miss cycles
system.cpu.dcache.WriteReq_mshr_miss_latency::total   2666830000                       # number of WriteReq MSHR miss cycles
system.cpu.dcache.WriteReq_mshr_miss_rate::.cpu.data     0.013910                       # mshr miss rate for WriteReq accesses
system.cpu.dcache.WriteReq_mshr_miss_rate::total     0.013910                       # mshr miss rate for WriteReq accesses
system.cpu.dcache.WriteReq_avg_mshr_miss_latency::.cpu.data 30312.464480                       # average WriteReq mshr miss latency
system.cpu.dcache.WriteReq_avg_mshr_miss_latency::total 30312.464480                       # average WriteReq mshr miss latency
system.cpu.dcache.SoftPFReq_hits::.cpu.data         8507                       # number of SoftPFReq hits
system.cpu.dcache.SoftPFReq_hits::total          8507                       # number of SoftPFReq hits
system.cpu.dcache.SoftPFReq_misses::.cpu.data          187                       # number of SoftPFReq misses
system.cpu.dcache.SoftPFReq_misses::total          187                       # number of SoftPFReq misses
system.cpu.dcache.SoftPFReq_accesses::.cpu.data         8694                       # number of SoftPFReq accesses(hits+misses)
system.cpu.dcache.SoftPFReq_accesses::total         8694                       # number of SoftPFReq accesses(hits+misses)
system.cpu.dcache.SoftPFReq_miss_rate::.cpu.data     0.021509                       # miss rate for SoftPFReq accesses
system.cpu.dcache.SoftPFReq_miss_rate::total     0.021509                       # miss rate for SoftPFReq accesses
system.cpu.dcache.SoftPFReq_mshr_misses::.cpu.data          171                       # number of SoftPFReq MSHR misses
system.cpu.dcache.SoftPFReq_mshr_misses::total          171                       # number of SoftPFReq MSHR misses
system.cpu.dcache.SoftPFReq_mshr_miss_latency::.cpu.data     10702000                       # number of SoftPFReq MSHR miss cycles
system.cpu.dcache.SoftPFReq_mshr_miss_latency::total     10702000                       # number of SoftPFReq MSHR miss cycles
system.cpu.dcache.SoftPFReq_mshr_miss_rate::.cpu.data     0.019669                       # mshr miss rate for SoftPFReq accesses
system.cpu.dcache.SoftPFReq_mshr_miss_rate::total     0.019669                       # mshr miss rate for SoftPFReq accesses
system.cpu.dcache.SoftPFReq_avg_mshr_miss_latency::.cpu.data 62584.795322                       # average SoftPFReq mshr miss latency
system.cpu.dcache.SoftPFReq_avg_mshr_miss_latency::total 62584.795322                       # average SoftPFReq mshr miss latency
system.cpu.dcache.LoadLockedReq_hits::.cpu.data          165                       # number of LoadLockedReq hits
system.cpu.dcache.LoadLockedReq_hits::total          165                       # number of LoadLockedReq hits
system.cpu.dcache.LoadLockedReq_misses::.cpu.data            1                       # number of LoadLockedReq misses
system.cpu.dcache.LoadLockedReq_misses::total            1                       # number of LoadLockedReq misses
system.cpu.dcache.LoadLockedReq_miss_latency::.cpu.data        95000                       # number of LoadLockedReq miss cycles
system.cpu.dcache.LoadLockedReq_miss_latency::total        95000                       # number of LoadLockedReq miss cycles
system.cpu.dcache.LoadLockedReq_accesses::.cpu.data          166                       # number of LoadLockedReq accesses(hits+misses)
system.cpu.dcache.LoadLockedReq_accesses::total          166                       # number of LoadLockedReq accesses(hits+misses)
system.cpu.dcache.LoadLockedReq_miss_rate::.cpu.data     0.006024                       # miss rate for LoadLockedReq accesses
system.cpu.dcache.LoadLockedReq_miss_rate::total     0.006024                       # miss rate for LoadLockedReq accesses
system.cpu.dcache.LoadLockedReq_avg_miss_latency::.cpu.data        95000                       # average LoadLockedReq miss latency
system.cpu.dcache.LoadLockedReq_avg_miss_latency::total        95000                       # average LoadLockedReq miss latency
system.cpu.dcache.LoadLockedReq_mshr_misses::.cpu.data            1                       # number of LoadLockedReq MSHR misses
system.cpu.dcache.LoadLockedReq_mshr_misses::total            1                       # number of LoadLockedReq MSHR misses
system.cpu.dcache.LoadLockedReq_mshr_miss_latency::.cpu.data        93000                       # number of LoadLockedReq MSHR miss cycles
system.cpu.dcache.LoadLockedReq_mshr_miss_latency::total        93000                       # number of LoadLockedReq MSHR miss cycles
system.cpu.dcache.LoadLockedReq_mshr_miss_rate::.cpu.data     0.006024                       # mshr miss rate for LoadLockedReq accesses
system.cpu.dcache.LoadLockedReq_mshr_miss_rate::total     0.006024                       # mshr miss rate for LoadLockedReq accesses
system.cpu.dcache.LoadLockedReq_avg_mshr_miss_latency::.cpu.data        93000                       # average LoadLockedReq mshr miss latency
system.cpu.dcache.LoadLockedReq_avg_mshr_miss_latency::total        93000                       # average LoadLockedReq mshr miss latency
system.cpu.dcache.StoreCondReq_hits::.cpu.data          166                       # number of StoreCondReq hits
system.cpu.dcache.StoreCondReq_hits::total          166                       # number of StoreCondReq hits
system.cpu.dcache.StoreCondReq_accesses::.cpu.data          166                       # number of StoreCondReq accesses(hits+misses)
system.cpu.dcache.StoreCondReq_accesses::total          166                       # number of StoreCondReq accesses(hits+misses)
system.cpu.dcache.tags.pwrStateResidencyTicks::UNDEFINED 123228938000                       # Cumulative time (in ticks) in various power states
system.cpu.dcache.tags.tagsinuse           509.681352                       # Cycle average of tags in use
system.cpu.dcache.tags.total_refs            43835908                       # Total number of references to valid blocks.
system.cpu.dcache.tags.sampled_refs            238169                       # Sample count of references to valid blocks.
system.cpu.dcache.tags.avg_refs            184.053794                       # Average number of references to valid blocks.
system.cpu.dcache.tags.warmup_cycle            223000                       # Cycle when the warmup percentage was hit.
system.cpu.dcache.tags.occ_blocks::.cpu.data   509.681352                       # Average occupied blocks per requestor
system.cpu.dcache.tags.occ_percent::.cpu.data     0.995471                       # Average percentage of cache occupancy
system.cpu.dcache.tags.occ_percent::total     0.995471                       # Average percentage of cache occupancy
system.cpu.dcache.tags.occ_task_id_blocks::1024          512                       # Occupied blocks per task id
system.cpu.dcache.tags.age_task_id_blocks_1024::0            6                       # Occupied blocks per task id
system.cpu.dcache.tags.age_task_id_blocks_1024::1           46                       # Occupied blocks per task id
system.cpu.dcache.tags.age_task_id_blocks_1024::2          298                       # Occupied blocks per task id
system.cpu.dcache.tags.age_task_id_blocks_1024::3          162                       # Occupied blocks per task id
system.cpu.dcache.tags.occ_task_id_percent::1024            1                       # Percentage of cache occupancy per task id
system.cpu.dcache.tags.tag_accesses          44089248                       # Number of tag accesses
system.cpu.dcache.tags.data_accesses         44089248                       # Number of data accesses
system.cpu.itb.walker.pwrStateResidencyTicks::UNDEFINED 123228938000                       # Cumulative time (in ticks) in various power states
system.cpu.itb.stage2_mmu.stage2_tlb.walker.pwrStateResidencyTicks::UNDEFINED 123228938000                       # Cumulative time (in ticks) in various power states

---------- End Simulation Statistics   ----------
