
---------- Begin Simulation Statistics ----------
final_tick                               177353009000                       # Number of ticks from beginning of simulation (restored from checkpoints and never reset)
host_inst_rate                                 274861                       # Simulator instruction rate (inst/s)
host_mem_usage                                 709664                       # Number of bytes of host memory used
host_op_rate                                   275409                       # Simulator op (including micro ops) rate (op/s)
host_seconds                                   363.82                       # Real time elapsed on the host
host_tick_rate                              487473276                       # Simulator tick rate (ticks/s)
sim_freq                                 1000000000000                       # Frequency of simulated ticks
sim_insts                                   100000001                       # Number of instructions simulated
sim_ops                                     100199569                       # Number of ops (including micro ops) simulated
sim_seconds                                  0.177353                       # Number of seconds simulated
sim_ticks                                177353009000                       # Number of ticks simulated
system.cpu.branchPred.BTBCorrect                    0                       # Number of correct BTB predictions (this stat may not work properly.
system.cpu.branchPred.BTBHitPct             99.567943                       # BTB Hit Percentage
system.cpu.branchPred.BTBHits                 2104248                       # Number of BTB hits
system.cpu.branchPred.BTBLookups              2113379                       # Number of BTB lookups
system.cpu.branchPred.RASInCorrect                  6                       # Number of incorrect RAS predictions.
system.cpu.branchPred.condIncorrect             83519                       # Number of conditional branches incorrect
system.cpu.branchPred.condPredicted           3635610                       # Number of conditional branches predicted
system.cpu.branchPred.indirectHits                300                       # Number of indirect target hits.
system.cpu.branchPred.indirectLookups             798                       # Number of indirect predictor lookups.
system.cpu.branchPred.indirectMisses              498                       # Number of indirect misses.
system.cpu.branchPred.lookups                 4390056                       # Number of BP lookups
system.cpu.branchPred.usedRAS                   66057                       # Number of times the RAS was used to get a target.
system.cpu.branchPredindirectMispredicted          167                       # Number of mispredicted indirect branches.
system.cpu.committedInsts                   100000001                       # Number of instructions committed
system.cpu.committedOps                     100199569                       # Number of ops (including micro ops) committed
system.cpu.cpi                               1.773530                       # CPI: cycles per instruction
system.cpu.discardedOps                        197342                       # Number of ops (including micro ops) which were discarded before commit
system.cpu.dtb.accesses                             0                       # DTB accesses
system.cpu.dtb.align_faults                         0                       # Number of TLB faults due to alignment restrictions
system.cpu.dtb.domain_faults                        0                       # Number of TLB faults due to domain restrictions
system.cpu.dtb.flush_entries                        0                       # Number of entries that have been flushed from TLB
system.cpu.dtb.flush_tlb                            0                       # Number of times complete TLB was flushed
system.cpu.dtb.flush_tlb_asid                       0                       # Number of times TLB was flushed by ASID
system.cpu.dtb.flush_tlb_mva                        0                       # Number of times TLB was flushed by MVA
system.cpu.dtb.flush_tlb_mva_asid                   0                       # Number of times TLB was flushed by MVA & ASID
system.cpu.dtb.hits                                 0                       # DTB hits
system.cpu.dtb.inst_accesses                        0                       # ITB inst accesses
system.cpu.dtb.inst_hits                            0                       # ITB inst hits
system.cpu.dtb.inst_misses                          0                       # ITB inst misses
system.cpu.dtb.misses                               0                       # DTB misses
system.cpu.dtb.perms_faults                         0                       # Number of TLB faults due to permissions restrictions
system.cpu.dtb.prefetch_faults                      0                       # Number of TLB faults due to prefetch
system.cpu.dtb.read_accesses                        0                       # DTB read accesses
system.cpu.dtb.read_hits                            0                       # DTB read hits
system.cpu.dtb.read_misses                          0                       # DTB read misses
system.cpu.dtb.stage2_mmu.stage2_tlb.accesses            0                       # DTB accesses
system.cpu.dtb.stage2_mmu.stage2_tlb.align_faults            0                       # Number of TLB faults due to alignment restrictions
system.cpu.dtb.stage2_mmu.stage2_tlb.domain_faults            0                       # Number of TLB faults due to domain restrictions
system.cpu.dtb.stage2_mmu.stage2_tlb.flush_entries            0                       # Number of entries that have been flushed from TLB
system.cpu.dtb.stage2_mmu.stage2_tlb.flush_tlb            0                       # Number of times complete TLB was flushed
system.cpu.dtb.stage2_mmu.stage2_tlb.flush_tlb_asid            0                       # Number of times TLB was flushed by ASID
system.cpu.dtb.stage2_mmu.stage2_tlb.flush_tlb_mva            0                       # Number of times TLB was flushed by MVA
system.cpu.dtb.stage2_mmu.stage2_tlb.flush_tlb_mva_asid            0                       # Number of times TLB was flushed by MVA & ASID
system.cpu.dtb.stage2_mmu.stage2_tlb.hits            0                       # DTB hits
system.cpu.dtb.stage2_mmu.stage2_tlb.inst_accesses            0                       # ITB inst accesses
system.cpu.dtb.stage2_mmu.stage2_tlb.inst_hits            0                       # ITB inst hits
system.cpu.dtb.stage2_mmu.stage2_tlb.inst_misses            0                       # ITB inst misses
system.cpu.dtb.stage2_mmu.stage2_tlb.misses            0                       # DTB misses
system.cpu.dtb.stage2_mmu.stage2_tlb.perms_faults            0                       # Number of TLB faults due to permissions restrictions
system.cpu.dtb.stage2_mmu.stage2_tlb.prefetch_faults            0                       # Number of TLB faults due to prefetch
system.cpu.dtb.stage2_mmu.stage2_tlb.read_accesses            0                       # DTB read accesses
system.cpu.dtb.stage2_mmu.stage2_tlb.read_hits            0                       # DTB read hits
system.cpu.dtb.stage2_mmu.stage2_tlb.read_misses            0                       # DTB read misses
system.cpu.dtb.stage2_mmu.stage2_tlb.walker.walkRequestOrigin_Requested::Data            0                       # Table walker requests started/completed, data/inst
system.cpu.dtb.stage2_mmu.stage2_tlb.walker.walkRequestOrigin_Requested::Inst            0                       # Table walker requests started/completed, data/inst
system.cpu.dtb.stage2_mmu.stage2_tlb.walker.walkRequestOrigin_Requested::total            0                       # Table walker requests started/completed, data/inst
system.cpu.dtb.stage2_mmu.stage2_tlb.walker.walkRequestOrigin_Completed::Data            0                       # Table walker requests started/completed, data/inst
system.cpu.dtb.stage2_mmu.stage2_tlb.walker.walkRequestOrigin_Completed::Inst            0                       # Table walker requests started/completed, data/inst
system.cpu.dtb.stage2_mmu.stage2_tlb.walker.walkRequestOrigin_Completed::total            0                       # Table walker requests started/completed, data/inst
system.cpu.dtb.stage2_mmu.stage2_tlb.walker.walkRequestOrigin::total            0                       # Table walker requests started/completed, data/inst
system.cpu.dtb.stage2_mmu.stage2_tlb.walker.walks            0                       # Table walker walks requested
system.cpu.dtb.stage2_mmu.stage2_tlb.write_accesses            0                       # DTB write accesses
system.cpu.dtb.stage2_mmu.stage2_tlb.write_hits            0                       # DTB write hits
system.cpu.dtb.stage2_mmu.stage2_tlb.write_misses            0                       # DTB write misses
system.cpu.dtb.walker.walkRequestOrigin_Requested::Data            0                       # Table walker requests started/completed, data/inst
system.cpu.dtb.walker.walkRequestOrigin_Requested::Inst            0                       # Table walker requests started/completed, data/inst
system.cpu.dtb.walker.walkRequestOrigin_Requested::total            0                       # Table walker requests started/completed, data/inst
system.cpu.dtb.walker.walkRequestOrigin_Completed::Data            0                       # Table walker requests started/completed, data/inst
system.cpu.dtb.walker.walkRequestOrigin_Completed::Inst            0                       # Table walker requests started/completed, data/inst
system.cpu.dtb.walker.walkRequestOrigin_Completed::total            0                       # Table walker requests started/completed, data/inst
system.cpu.dtb.walker.walkRequestOrigin::total            0                       # Table walker requests started/completed, data/inst
system.cpu.dtb.walker.walks                         0                       # Table walker walks requested
system.cpu.dtb.write_accesses                       0                       # DTB write accesses
system.cpu.dtb.write_hits                           0                       # DTB write hits
system.cpu.dtb.write_misses                         0                       # DTB write misses
system.cpu.fetch2.amo_instructions                  0                       # Number of memory atomic instructions successfully decoded
system.cpu.fetch2.fp_instructions                   0                       # Number of floating point instructions successfully decoded
system.cpu.fetch2.int_instructions           42629266                       # Number of integer instructions successfully decoded
system.cpu.fetch2.load_instructions          43486260                       # Number of memory load instructions successfully decoded
system.cpu.fetch2.store_instructions         11034029                       # Number of memory store instructions successfully decoded
system.cpu.fetch2.vec_instructions                  0                       # Number of SIMD instructions successfully decoded
system.cpu.idleCycles                        43533390                       # Total number of cycles that the object has spent stopped
system.cpu.ipc                               0.563847                       # IPC: instructions per cycle
system.cpu.itb.accesses                             0                       # DTB accesses
system.cpu.itb.align_faults                         0                       # Number of TLB faults due to alignment restrictions
system.cpu.itb.domain_faults                        0                       # Number of TLB faults due to domain restrictions
system.cpu.itb.flush_entries                        0                       # Number of entries that have been flushed from TLB
system.cpu.itb.flush_tlb                            0                       # Number of times complete TLB was flushed
system.cpu.itb.flush_tlb_asid                       0                       # Number of times TLB was flushed by ASID
system.cpu.itb.flush_tlb_mva                        0                       # Number of times TLB was flushed by MVA
system.cpu.itb.flush_tlb_mva_asid                   0                       # Number of times TLB was flushed by MVA & ASID
system.cpu.itb.hits                                 0                       # DTB hits
system.cpu.itb.inst_accesses                        0                       # ITB inst accesses
system.cpu.itb.inst_hits                            0                       # ITB inst hits
system.cpu.itb.inst_misses                          0                       # ITB inst misses
system.cpu.itb.misses                               0                       # DTB misses
system.cpu.itb.perms_faults                         0                       # Number of TLB faults due to permissions restrictions
system.cpu.itb.prefetch_faults                      0                       # Number of TLB faults due to prefetch
system.cpu.itb.read_accesses                        0                       # DTB read accesses
system.cpu.itb.read_hits                            0                       # DTB read hits
system.cpu.itb.read_misses                          0                       # DTB read misses
system.cpu.itb.stage2_mmu.stage2_tlb.accesses            0                       # DTB accesses
system.cpu.itb.stage2_mmu.stage2_tlb.align_faults            0                       # Number of TLB faults due to alignment restrictions
system.cpu.itb.stage2_mmu.stage2_tlb.domain_faults            0                       # Number of TLB faults due to domain restrictions
system.cpu.itb.stage2_mmu.stage2_tlb.flush_entries            0                       # Number of entries that have been flushed from TLB
system.cpu.itb.stage2_mmu.stage2_tlb.flush_tlb            0                       # Number of times complete TLB was flushed
system.cpu.itb.stage2_mmu.stage2_tlb.flush_tlb_asid            0                       # Number of times TLB was flushed by ASID
system.cpu.itb.stage2_mmu.stage2_tlb.flush_tlb_mva            0                       # Number of times TLB was flushed by MVA
system.cpu.itb.stage2_mmu.stage2_tlb.flush_tlb_mva_asid            0                       # Number of times TLB was flushed by MVA & ASID
system.cpu.itb.stage2_mmu.stage2_tlb.hits            0                       # DTB hits
system.cpu.itb.stage2_mmu.stage2_tlb.inst_accesses            0                       # ITB inst accesses
system.cpu.itb.stage2_mmu.stage2_tlb.inst_hits            0                       # ITB inst hits
system.cpu.itb.stage2_mmu.stage2_tlb.inst_misses            0                       # ITB inst misses
system.cpu.itb.stage2_mmu.stage2_tlb.misses            0                       # DTB misses
system.cpu.itb.stage2_mmu.stage2_tlb.perms_faults            0                       # Number of TLB faults due to permissions restrictions
system.cpu.itb.stage2_mmu.stage2_tlb.prefetch_faults            0                       # Number of TLB faults due to prefetch
system.cpu.itb.stage2_mmu.stage2_tlb.read_accesses            0                       # DTB read accesses
system.cpu.itb.stage2_mmu.stage2_tlb.read_hits            0                       # DTB read hits
system.cpu.itb.stage2_mmu.stage2_tlb.read_misses            0                       # DTB read misses
system.cpu.itb.stage2_mmu.stage2_tlb.walker.walkRequestOrigin_Requested::Data            0                       # Table walker requests started/completed, data/inst
system.cpu.itb.stage2_mmu.stage2_tlb.walker.walkRequestOrigin_Requested::Inst            0                       # Table walker requests started/completed, data/inst
system.cpu.itb.stage2_mmu.stage2_tlb.walker.walkRequestOrigin_Requested::total            0                       # Table walker requests started/completed, data/inst
system.cpu.itb.stage2_mmu.stage2_tlb.walker.walkRequestOrigin_Completed::Data            0                       # Table walker requests started/completed, data/inst
system.cpu.itb.stage2_mmu.stage2_tlb.walker.walkRequestOrigin_Completed::Inst            0                       # Table walker requests started/completed, data/inst
system.cpu.itb.stage2_mmu.stage2_tlb.walker.walkRequestOrigin_Completed::total            0                       # Table walker requests started/completed, data/inst
system.cpu.itb.stage2_mmu.stage2_tlb.walker.walkRequestOrigin::total            0                       # Table walker requests started/completed, data/inst
system.cpu.itb.stage2_mmu.stage2_tlb.walker.walks            0                       # Table walker walks requested
system.cpu.itb.stage2_mmu.stage2_tlb.write_accesses            0                       # DTB write accesses
system.cpu.itb.stage2_mmu.stage2_tlb.write_hits            0                       # DTB write hits
system.cpu.itb.stage2_mmu.stage2_tlb.write_misses            0                       # DTB write misses
system.cpu.itb.walker.walkRequestOrigin_Requested::Data            0                       # Table walker requests started/completed, data/inst
system.cpu.itb.walker.walkRequestOrigin_Requested::Inst            0                       # Table walker requests started/completed, data/inst
system.cpu.itb.walker.walkRequestOrigin_Requested::total            0                       # Table walker requests started/completed, data/inst
system.cpu.itb.walker.walkRequestOrigin_Completed::Data            0                       # Table walker requests started/completed, data/inst
system.cpu.itb.walker.walkRequestOrigin_Completed::Inst            0                       # Table walker requests started/completed, data/inst
system.cpu.itb.walker.walkRequestOrigin_Completed::total            0                       # Table walker requests started/completed, data/inst
system.cpu.itb.walker.walkRequestOrigin::total            0                       # Table walker requests started/completed, data/inst
system.cpu.itb.walker.walks                         0                       # Table walker walks requested
system.cpu.itb.write_accesses                       0                       # DTB write accesses
system.cpu.itb.write_hits                           0                       # DTB write hits
system.cpu.itb.write_misses                         0                       # DTB write misses
system.cpu.numCycles                        177353009                       # number of cpu cycles simulated
system.cpu.numFetchSuspends                         0                       # Number of times Execute suspended instruction fetching
system.cpu.numWorkItemsCompleted                    0                       # number of work items this cpu completed
system.cpu.numWorkItemsStarted                      0                       # number of work items this cpu started
system.cpu.op_class_0::No_OpClass                   0      0.00%      0.00% # Class of committed instruction
system.cpu.op_class_0::IntAlu                46443154     46.35%     46.35% # Class of committed instruction
system.cpu.op_class_0::IntMult                  20720      0.02%     46.37% # Class of committed instruction
system.cpu.op_class_0::IntDiv                       0      0.00%     46.37% # Class of committed instruction
system.cpu.op_class_0::FloatAdd                     0      0.00%     46.37% # Class of committed instruction
system.cpu.op_class_0::FloatCmp                     0      0.00%     46.37% # Class of committed instruction
system.cpu.op_class_0::FloatCvt                     0      0.00%     46.37% # Class of committed instruction
system.cpu.op_class_0::FloatMult                    0      0.00%     46.37% # Class of committed instruction
system.cpu.op_class_0::FloatMultAcc                 0      0.00%     46.37% # Class of committed instruction
system.cpu.op_class_0::FloatDiv                     0      0.00%     46.37% # Class of committed instruction
system.cpu.op_class_0::FloatMisc                    0      0.00%     46.37% # Class of committed instruction
system.cpu.op_class_0::FloatSqrt                    0      0.00%     46.37% # Class of committed instruction
system.cpu.op_class_0::SimdAdd                      0      0.00%     46.37% # Class of committed instruction
system.cpu.op_class_0::SimdAddAcc                   0      0.00%     46.37% # Class of committed instruction
system.cpu.op_class_0::SimdAlu                      0      0.00%     46.37% # Class of committed instruction
system.cpu.op_class_0::SimdCmp                      0      0.00%     46.37% # Class of committed instruction
system.cpu.op_class_0::SimdCvt                      0      0.00%     46.37% # Class of committed instruction
system.cpu.op_class_0::SimdMisc                     0      0.00%     46.37% # Class of committed instruction
system.cpu.op_class_0::SimdMult                     0      0.00%     46.37% # Class of committed instruction
system.cpu.op_class_0::SimdMultAcc                  0      0.00%     46.37% # Class of committed instruction
system.cpu.op_class_0::SimdShift                    0      0.00%     46.37% # Class of committed instruction
system.cpu.op_class_0::SimdShiftAcc                 0      0.00%     46.37% # Class of committed instruction
system.cpu.op_class_0::SimdDiv                      0      0.00%     46.37% # Class of committed instruction
system.cpu.op_class_0::SimdSqrt                     0      0.00%     46.37% # Class of committed instruction
system.cpu.op_class_0::SimdFloatAdd                 0      0.00%     46.37% # Class of committed instruction
system.cpu.op_class_0::SimdFloatAlu                 0      0.00%     46.37% # Class of committed instruction
system.cpu.op_class_0::SimdFloatCmp                 0      0.00%     46.37% # Class of committed instruction
system.cpu.op_class_0::SimdFloatCvt                 0      0.00%     46.37% # Class of committed instruction
system.cpu.op_class_0::SimdFloatDiv                 0      0.00%     46.37% # Class of committed instruction
system.cpu.op_class_0::SimdFloatMisc                1      0.00%     46.37% # Class of committed instruction
system.cpu.op_class_0::SimdFloatMult                0      0.00%     46.37% # Class of committed instruction
system.cpu.op_class_0::SimdFloatMultAcc             0      0.00%     46.37% # Class of committed instruction
system.cpu.op_class_0::SimdFloatSqrt                0      0.00%     46.37% # Class of committed instruction
system.cpu.op_class_0::SimdReduceAdd                0      0.00%     46.37% # Class of committed instruction
system.cpu.op_class_0::SimdReduceAlu                0      0.00%     46.37% # Class of committed instruction
system.cpu.op_class_0::SimdReduceCmp                0      0.00%     46.37% # Class of committed instruction
system.cpu.op_class_0::SimdFloatReduceAdd            0      0.00%     46.37% # Class of committed instruction
system.cpu.op_class_0::SimdFloatReduceCmp            0      0.00%     46.37% # Class of committed instruction
system.cpu.op_class_0::SimdAes                      0      0.00%     46.37% # Class of committed instruction
system.cpu.op_class_0::SimdAesMix                   0      0.00%     46.37% # Class of committed instruction
system.cpu.op_class_0::SimdSha1Hash                 0      0.00%     46.37% # Class of committed instruction
system.cpu.op_class_0::SimdSha1Hash2                0      0.00%     46.37% # Class of committed instruction
system.cpu.op_class_0::SimdSha256Hash               0      0.00%     46.37% # Class of committed instruction
system.cpu.op_class_0::SimdSha256Hash2              0      0.00%     46.37% # Class of committed instruction
system.cpu.op_class_0::SimdShaSigma2                0      0.00%     46.37% # Class of committed instruction
system.cpu.op_class_0::SimdShaSigma3                0      0.00%     46.37% # Class of committed instruction
system.cpu.op_class_0::SimdPredAlu                  0      0.00%     46.37% # Class of committed instruction
system.cpu.op_class_0::MemRead               42756988     42.67%     89.04% # Class of committed instruction
system.cpu.op_class_0::MemWrite              10978706     10.96%    100.00% # Class of committed instruction
system.cpu.op_class_0::FloatMemRead                 0      0.00%    100.00% # Class of committed instruction
system.cpu.op_class_0::FloatMemWrite                0      0.00%    100.00% # Class of committed instruction
system.cpu.op_class_0::IprAccess                    0      0.00%    100.00% # Class of committed instruction
system.cpu.op_class_0::InstPrefetch                 0      0.00%    100.00% # Class of committed instruction
system.cpu.op_class_0::total                100199569                       # Class of committed instruction
system.cpu.tickCycles                       133819619                       # Number of cycles that the object actually ticked
system.cpu.workload.numSyscalls                    85                       # Number of system calls
system.membus.snoop_filter.hit_multi_requests            0                       # Number of requests hitting in the snoop filter with multiple (>1) holders of the requested data.
system.membus.snoop_filter.hit_multi_snoops            0                       # Number of snoops hitting in the snoop filter with multiple (>1) holders of the requested data.
system.membus.snoop_filter.hit_single_requests       278744                       # Number of requests hitting in the snoop filter with a single holder of the requested data.
system.membus.snoop_filter.hit_single_snoops            0                       # Number of snoops hitting in the snoop filter with a single holder of the requested data.
system.membus.snoop_filter.tot_requests        566266                       # Total number of requests made to the snoop filter.
system.membus.snoop_filter.tot_snoops               0                       # Total number of snoops made to the snoop filter.
system.tol2bus.snoop_filter.hit_multi_requests         2845                       # Number of requests hitting in the snoop filter with multiple (>1) holders of the requested data.
system.tol2bus.snoop_filter.hit_multi_snoops            0                       # Number of snoops hitting in the snoop filter with multiple (>1) holders of the requested data.
system.tol2bus.snoop_filter.hit_single_requests      1297543                       # Number of requests hitting in the snoop filter with a single holder of the requested data.
system.tol2bus.snoop_filter.hit_single_snoops         1609                       # Number of snoops hitting in the snoop filter with a single holder of the requested data.
system.tol2bus.snoop_filter.tot_requests      2595936                       # Total number of requests made to the snoop filter.
system.tol2bus.snoop_filter.tot_snoops           1609                       # Total number of snoops made to the snoop filter.
system.membus.pwrStateResidencyTicks::UNDEFINED 177353009000                       # Cumulative time (in ticks) in various power states
system.membus.trans_dist::ReadResp             110177                       # Transaction distribution
system.membus.trans_dist::WritebackDirty       200047                       # Transaction distribution
system.membus.trans_dist::CleanEvict            78687                       # Transaction distribution
system.membus.trans_dist::ReadExReq            177355                       # Transaction distribution
system.membus.trans_dist::ReadExResp           177355                       # Transaction distribution
system.membus.trans_dist::ReadSharedReq        110177                       # Transaction distribution
system.membus.pkt_count_system.l2.mem_side::system.mem_ctrls.port       853798                       # Packet count per connected master and slave (bytes)
system.membus.pkt_count::total                 853798                       # Packet count per connected master and slave (bytes)
system.membus.pkt_size_system.l2.mem_side::system.mem_ctrls.port     31205056                       # Cumulative packet size per connected master and slave (bytes)
system.membus.pkt_size::total                31205056                       # Cumulative packet size per connected master and slave (bytes)
system.membus.snoops                                0                       # Total snoops (count)
system.membus.snoopTraffic                          0                       # Total snoop traffic (bytes)
system.membus.snoop_fanout::samples            287532                       # Request fanout histogram
system.membus.snoop_fanout::mean                    0                       # Request fanout histogram
system.membus.snoop_fanout::stdev                   0                       # Request fanout histogram
system.membus.snoop_fanout::underflows              0      0.00%      0.00% # Request fanout histogram
system.membus.snoop_fanout::0                  287532    100.00%    100.00% # Request fanout histogram
system.membus.snoop_fanout::1                       0      0.00%    100.00% # Request fanout histogram
system.membus.snoop_fanout::overflows               0      0.00%    100.00% # Request fanout histogram
system.membus.snoop_fanout::min_value               0                       # Request fanout histogram
system.membus.snoop_fanout::max_value               0                       # Request fanout histogram
system.membus.snoop_fanout::total              287532                       # Request fanout histogram
system.membus.respLayer1.occupancy         1565317000                       # Layer occupancy (ticks)
system.membus.respLayer1.utilization              0.9                       # Layer utilization (%)
system.membus.reqLayer0.occupancy          1366454000                       # Layer occupancy (ticks)
system.membus.reqLayer0.utilization               0.8                       # Layer utilization (%)
system.tol2bus.pwrStateResidencyTicks::UNDEFINED 177353009000                       # Cumulative time (in ticks) in various power states
system.tol2bus.trans_dist::ReadResp            835392                       # Transaction distribution
system.tol2bus.trans_dist::WritebackDirty      1357676                       # Transaction distribution
system.tol2bus.trans_dist::WritebackClean          140                       # Transaction distribution
system.tol2bus.trans_dist::CleanEvict          219975                       # Transaction distribution
system.tol2bus.trans_dist::ReadExReq           463003                       # Transaction distribution
system.tol2bus.trans_dist::ReadExResp          463003                       # Transaction distribution
system.tol2bus.trans_dist::ReadCleanReq           738                       # Transaction distribution
system.tol2bus.trans_dist::ReadSharedReq       834654                       # Transaction distribution
system.tol2bus.pkt_count_system.cpu.icache.mem_side::system.l2.cpu_side         1616                       # Packet count per connected master and slave (bytes)
system.tol2bus.pkt_count_system.cpu.dcache.mem_side::system.l2.cpu_side      3892715                       # Packet count per connected master and slave (bytes)
system.tol2bus.pkt_count::total               3894331                       # Packet count per connected master and slave (bytes)
system.tol2bus.pkt_size_system.cpu.icache.mem_side::system.l2.cpu_side        56192                       # Cumulative packet size per connected master and slave (bytes)
system.tol2bus.pkt_size_system.cpu.dcache.mem_side::system.l2.cpu_side    157138304                       # Cumulative packet size per connected master and slave (bytes)
system.tol2bus.pkt_size::total              157194496                       # Cumulative packet size per connected master and slave (bytes)
system.tol2bus.snoops                          280250                       # Total snoops (count)
system.tol2bus.snoopTraffic                  12803008                       # Total snoop traffic (bytes)
system.tol2bus.snoop_fanout::samples          1578645                       # Request fanout histogram
system.tol2bus.snoop_fanout::mean            0.002823                       # Request fanout histogram
system.tol2bus.snoop_fanout::stdev           0.053054                       # Request fanout histogram
system.tol2bus.snoop_fanout::underflows             0      0.00%      0.00% # Request fanout histogram
system.tol2bus.snoop_fanout::0                1574189     99.72%     99.72% # Request fanout histogram
system.tol2bus.snoop_fanout::1                   4456      0.28%    100.00% # Request fanout histogram
system.tol2bus.snoop_fanout::2                      0      0.00%    100.00% # Request fanout histogram
system.tol2bus.snoop_fanout::overflows              0      0.00%    100.00% # Request fanout histogram
system.tol2bus.snoop_fanout::min_value              0                       # Request fanout histogram
system.tol2bus.snoop_fanout::max_value              1                       # Request fanout histogram
system.tol2bus.snoop_fanout::total            1578645                       # Request fanout histogram
system.tol2bus.reqLayer0.occupancy         4911474000                       # Layer occupancy (ticks)
system.tol2bus.reqLayer0.utilization              2.8                       # Layer utilization (%)
system.tol2bus.respLayer1.occupancy        3892975995                       # Layer occupancy (ticks)
system.tol2bus.respLayer1.utilization             2.2                       # Layer utilization (%)
system.tol2bus.respLayer0.occupancy           2214000                       # Layer occupancy (ticks)
system.tol2bus.respLayer0.utilization             0.0                       # Layer utilization (%)
system.voltage_domain.voltage                       1                       # Voltage in Volts
system.clk_domain.clock                          1000                       # Clock period in ticks
system.l2.pwrStateResidencyTicks::UNDEFINED 177353009000                       # Cumulative time (in ticks) in various power states
system.l2.demand_hits::.cpu.inst                   72                       # number of demand (read+write) hits
system.l2.demand_hits::.cpu.data              1010786                       # number of demand (read+write) hits
system.l2.demand_hits::total                  1010858                       # number of demand (read+write) hits
system.l2.overall_hits::.cpu.inst                  72                       # number of overall hits
system.l2.overall_hits::.cpu.data             1010786                       # number of overall hits
system.l2.overall_hits::total                 1010858                       # number of overall hits
system.l2.demand_misses::.cpu.inst                666                       # number of demand (read+write) misses
system.l2.demand_misses::.cpu.data             286871                       # number of demand (read+write) misses
system.l2.demand_misses::total                 287537                       # number of demand (read+write) misses
system.l2.overall_misses::.cpu.inst               666                       # number of overall misses
system.l2.overall_misses::.cpu.data            286871                       # number of overall misses
system.l2.overall_misses::total                287537                       # number of overall misses
system.l2.demand_miss_latency::.cpu.inst     65850000                       # number of demand (read+write) miss cycles
system.l2.demand_miss_latency::.cpu.data  30645903000                       # number of demand (read+write) miss cycles
system.l2.demand_miss_latency::total      30711753000                       # number of demand (read+write) miss cycles
system.l2.overall_miss_latency::.cpu.inst     65850000                       # number of overall miss cycles
system.l2.overall_miss_latency::.cpu.data  30645903000                       # number of overall miss cycles
system.l2.overall_miss_latency::total     30711753000                       # number of overall miss cycles
system.l2.demand_accesses::.cpu.inst              738                       # number of demand (read+write) accesses
system.l2.demand_accesses::.cpu.data          1297657                       # number of demand (read+write) accesses
system.l2.demand_accesses::total              1298395                       # number of demand (read+write) accesses
system.l2.overall_accesses::.cpu.inst             738                       # number of overall (read+write) accesses
system.l2.overall_accesses::.cpu.data         1297657                       # number of overall (read+write) accesses
system.l2.overall_accesses::total             1298395                       # number of overall (read+write) accesses
system.l2.demand_miss_rate::.cpu.inst        0.902439                       # miss rate for demand accesses
system.l2.demand_miss_rate::.cpu.data        0.221068                       # miss rate for demand accesses
system.l2.demand_miss_rate::total            0.221456                       # miss rate for demand accesses
system.l2.overall_miss_rate::.cpu.inst       0.902439                       # miss rate for overall accesses
system.l2.overall_miss_rate::.cpu.data       0.221068                       # miss rate for overall accesses
system.l2.overall_miss_rate::total           0.221456                       # miss rate for overall accesses
system.l2.demand_avg_miss_latency::.cpu.inst 98873.873874                       # average overall miss latency
system.l2.demand_avg_miss_latency::.cpu.data 106828.166667                       # average overall miss latency
system.l2.demand_avg_miss_latency::total 106809.742746                       # average overall miss latency
system.l2.overall_avg_miss_latency::.cpu.inst 98873.873874                       # average overall miss latency
system.l2.overall_avg_miss_latency::.cpu.data 106828.166667                       # average overall miss latency
system.l2.overall_avg_miss_latency::total 106809.742746                       # average overall miss latency
system.l2.blocked_cycles::no_mshrs                  0                       # number of cycles access was blocked
system.l2.blocked_cycles::no_targets                0                       # number of cycles access was blocked
system.l2.blocked::no_mshrs                         0                       # number of cycles access was blocked
system.l2.blocked::no_targets                       0                       # number of cycles access was blocked
system.l2.avg_blocked_cycles::no_mshrs            nan                       # average number of cycles each access was blocked
system.l2.avg_blocked_cycles::no_targets          nan                       # average number of cycles each access was blocked
system.l2.writebacks::.writebacks              200047                       # number of writebacks
system.l2.writebacks::total                    200047                       # number of writebacks
system.l2.demand_mshr_hits::.cpu.data               5                       # number of demand (read+write) MSHR hits
system.l2.demand_mshr_hits::total                   5                       # number of demand (read+write) MSHR hits
system.l2.overall_mshr_hits::.cpu.data              5                       # number of overall MSHR hits
system.l2.overall_mshr_hits::total                  5                       # number of overall MSHR hits
system.l2.demand_mshr_misses::.cpu.inst           666                       # number of demand (read+write) MSHR misses
system.l2.demand_mshr_misses::.cpu.data        286866                       # number of demand (read+write) MSHR misses
system.l2.demand_mshr_misses::total            287532                       # number of demand (read+write) MSHR misses
system.l2.overall_mshr_misses::.cpu.inst          666                       # number of overall MSHR misses
system.l2.overall_mshr_misses::.cpu.data       286866                       # number of overall MSHR misses
system.l2.overall_mshr_misses::total           287532                       # number of overall MSHR misses
system.l2.demand_mshr_miss_latency::.cpu.inst     52530000                       # number of demand (read+write) MSHR miss cycles
system.l2.demand_mshr_miss_latency::.cpu.data  24908172000                       # number of demand (read+write) MSHR miss cycles
system.l2.demand_mshr_miss_latency::total  24960702000                       # number of demand (read+write) MSHR miss cycles
system.l2.overall_mshr_miss_latency::.cpu.inst     52530000                       # number of overall MSHR miss cycles
system.l2.overall_mshr_miss_latency::.cpu.data  24908172000                       # number of overall MSHR miss cycles
system.l2.overall_mshr_miss_latency::total  24960702000                       # number of overall MSHR miss cycles
system.l2.demand_mshr_miss_rate::.cpu.inst     0.902439                       # mshr miss rate for demand accesses
system.l2.demand_mshr_miss_rate::.cpu.data     0.221065                       # mshr miss rate for demand accesses
system.l2.demand_mshr_miss_rate::total       0.221452                       # mshr miss rate for demand accesses
system.l2.overall_mshr_miss_rate::.cpu.inst     0.902439                       # mshr miss rate for overall accesses
system.l2.overall_mshr_miss_rate::.cpu.data     0.221065                       # mshr miss rate for overall accesses
system.l2.overall_mshr_miss_rate::total      0.221452                       # mshr miss rate for overall accesses
system.l2.demand_avg_mshr_miss_latency::.cpu.inst 78873.873874                       # average overall mshr miss latency
system.l2.demand_avg_mshr_miss_latency::.cpu.data 86828.595930                       # average overall mshr miss latency
system.l2.demand_avg_mshr_miss_latency::total 86810.170694                       # average overall mshr miss latency
system.l2.overall_avg_mshr_miss_latency::.cpu.inst 78873.873874                       # average overall mshr miss latency
system.l2.overall_avg_mshr_miss_latency::.cpu.data 86828.595930                       # average overall mshr miss latency
system.l2.overall_avg_mshr_miss_latency::total 86810.170694                       # average overall mshr miss latency
system.l2.replacements                         280250                       # number of replacements
system.l2.WritebackDirty_hits::.writebacks      1157629                       # number of WritebackDirty hits
system.l2.WritebackDirty_hits::total          1157629                       # number of WritebackDirty hits
system.l2.WritebackDirty_accesses::.writebacks      1157629                       # number of WritebackDirty accesses(hits+misses)
system.l2.WritebackDirty_accesses::total      1157629                       # number of WritebackDirty accesses(hits+misses)
system.l2.WritebackClean_hits::.writebacks          133                       # number of WritebackClean hits
system.l2.WritebackClean_hits::total              133                       # number of WritebackClean hits
system.l2.WritebackClean_accesses::.writebacks          133                       # number of WritebackClean accesses(hits+misses)
system.l2.WritebackClean_accesses::total          133                       # number of WritebackClean accesses(hits+misses)
system.l2.CleanEvict_mshr_misses::.writebacks           93                       # number of CleanEvict MSHR misses
system.l2.CleanEvict_mshr_misses::total            93                       # number of CleanEvict MSHR misses
system.l2.CleanEvict_mshr_miss_rate::.writebacks          inf                       # mshr miss rate for CleanEvict accesses
system.l2.CleanEvict_mshr_miss_rate::total          inf                       # mshr miss rate for CleanEvict accesses
system.l2.ReadExReq_hits::.cpu.data            285648                       # number of ReadExReq hits
system.l2.ReadExReq_hits::total                285648                       # number of ReadExReq hits
system.l2.ReadExReq_misses::.cpu.data          177355                       # number of ReadExReq misses
system.l2.ReadExReq_misses::total              177355                       # number of ReadExReq misses
system.l2.ReadExReq_miss_latency::.cpu.data  19355960000                       # number of ReadExReq miss cycles
system.l2.ReadExReq_miss_latency::total   19355960000                       # number of ReadExReq miss cycles
system.l2.ReadExReq_accesses::.cpu.data        463003                       # number of ReadExReq accesses(hits+misses)
system.l2.ReadExReq_accesses::total            463003                       # number of ReadExReq accesses(hits+misses)
system.l2.ReadExReq_miss_rate::.cpu.data     0.383054                       # miss rate for ReadExReq accesses
system.l2.ReadExReq_miss_rate::total         0.383054                       # miss rate for ReadExReq accesses
system.l2.ReadExReq_avg_miss_latency::.cpu.data 109136.815991                       # average ReadExReq miss latency
system.l2.ReadExReq_avg_miss_latency::total 109136.815991                       # average ReadExReq miss latency
system.l2.ReadExReq_mshr_misses::.cpu.data       177355                       # number of ReadExReq MSHR misses
system.l2.ReadExReq_mshr_misses::total         177355                       # number of ReadExReq MSHR misses
system.l2.ReadExReq_mshr_miss_latency::.cpu.data  15808860000                       # number of ReadExReq MSHR miss cycles
system.l2.ReadExReq_mshr_miss_latency::total  15808860000                       # number of ReadExReq MSHR miss cycles
system.l2.ReadExReq_mshr_miss_rate::.cpu.data     0.383054                       # mshr miss rate for ReadExReq accesses
system.l2.ReadExReq_mshr_miss_rate::total     0.383054                       # mshr miss rate for ReadExReq accesses
system.l2.ReadExReq_avg_mshr_miss_latency::.cpu.data 89136.815991                       # average ReadExReq mshr miss latency
system.l2.ReadExReq_avg_mshr_miss_latency::total 89136.815991                       # average ReadExReq mshr miss latency
system.l2.ReadCleanReq_hits::.cpu.inst             72                       # number of ReadCleanReq hits
system.l2.ReadCleanReq_hits::total                 72                       # number of ReadCleanReq hits
system.l2.ReadCleanReq_misses::.cpu.inst          666                       # number of ReadCleanReq misses
system.l2.ReadCleanReq_misses::total              666                       # number of ReadCleanReq misses
system.l2.ReadCleanReq_miss_latency::.cpu.inst     65850000                       # number of ReadCleanReq miss cycles
system.l2.ReadCleanReq_miss_latency::total     65850000                       # number of ReadCleanReq miss cycles
system.l2.ReadCleanReq_accesses::.cpu.inst          738                       # number of ReadCleanReq accesses(hits+misses)
system.l2.ReadCleanReq_accesses::total            738                       # number of ReadCleanReq accesses(hits+misses)
system.l2.ReadCleanReq_miss_rate::.cpu.inst     0.902439                       # miss rate for ReadCleanReq accesses
system.l2.ReadCleanReq_miss_rate::total      0.902439                       # miss rate for ReadCleanReq accesses
system.l2.ReadCleanReq_avg_miss_latency::.cpu.inst 98873.873874                       # average ReadCleanReq miss latency
system.l2.ReadCleanReq_avg_miss_latency::total 98873.873874                       # average ReadCleanReq miss latency
system.l2.ReadCleanReq_mshr_misses::.cpu.inst          666                       # number of ReadCleanReq MSHR misses
system.l2.ReadCleanReq_mshr_misses::total          666                       # number of ReadCleanReq MSHR misses
system.l2.ReadCleanReq_mshr_miss_latency::.cpu.inst     52530000                       # number of ReadCleanReq MSHR miss cycles
system.l2.ReadCleanReq_mshr_miss_latency::total     52530000                       # number of ReadCleanReq MSHR miss cycles
system.l2.ReadCleanReq_mshr_miss_rate::.cpu.inst     0.902439                       # mshr miss rate for ReadCleanReq accesses
system.l2.ReadCleanReq_mshr_miss_rate::total     0.902439                       # mshr miss rate for ReadCleanReq accesses
system.l2.ReadCleanReq_avg_mshr_miss_latency::.cpu.inst 78873.873874                       # average ReadCleanReq mshr miss latency
system.l2.ReadCleanReq_avg_mshr_miss_latency::total 78873.873874                       # average ReadCleanReq mshr miss latency
system.l2.ReadSharedReq_hits::.cpu.data        725138                       # number of ReadSharedReq hits
system.l2.ReadSharedReq_hits::total            725138                       # number of ReadSharedReq hits
system.l2.ReadSharedReq_misses::.cpu.data       109516                       # number of ReadSharedReq misses
system.l2.ReadSharedReq_misses::total          109516                       # number of ReadSharedReq misses
system.l2.ReadSharedReq_miss_latency::.cpu.data  11289943000                       # number of ReadSharedReq miss cycles
system.l2.ReadSharedReq_miss_latency::total  11289943000                       # number of ReadSharedReq miss cycles
system.l2.ReadSharedReq_accesses::.cpu.data       834654                       # number of ReadSharedReq accesses(hits+misses)
system.l2.ReadSharedReq_accesses::total        834654                       # number of ReadSharedReq accesses(hits+misses)
system.l2.ReadSharedReq_miss_rate::.cpu.data     0.131211                       # miss rate for ReadSharedReq accesses
system.l2.ReadSharedReq_miss_rate::total     0.131211                       # miss rate for ReadSharedReq accesses
system.l2.ReadSharedReq_avg_miss_latency::.cpu.data 103089.438986                       # average ReadSharedReq miss latency
system.l2.ReadSharedReq_avg_miss_latency::total 103089.438986                       # average ReadSharedReq miss latency
system.l2.ReadSharedReq_mshr_hits::.cpu.data            5                       # number of ReadSharedReq MSHR hits
system.l2.ReadSharedReq_mshr_hits::total            5                       # number of ReadSharedReq MSHR hits
system.l2.ReadSharedReq_mshr_misses::.cpu.data       109511                       # number of ReadSharedReq MSHR misses
system.l2.ReadSharedReq_mshr_misses::total       109511                       # number of ReadSharedReq MSHR misses
system.l2.ReadSharedReq_mshr_miss_latency::.cpu.data   9099312000                       # number of ReadSharedReq MSHR miss cycles
system.l2.ReadSharedReq_mshr_miss_latency::total   9099312000                       # number of ReadSharedReq MSHR miss cycles
system.l2.ReadSharedReq_mshr_miss_rate::.cpu.data     0.131205                       # mshr miss rate for ReadSharedReq accesses
system.l2.ReadSharedReq_mshr_miss_rate::total     0.131205                       # mshr miss rate for ReadSharedReq accesses
system.l2.ReadSharedReq_avg_mshr_miss_latency::.cpu.data 83090.392746                       # average ReadSharedReq mshr miss latency
system.l2.ReadSharedReq_avg_mshr_miss_latency::total 83090.392746                       # average ReadSharedReq mshr miss latency
system.l2.tags.pwrStateResidencyTicks::UNDEFINED 177353009000                       # Cumulative time (in ticks) in various power states
system.l2.tags.tagsinuse                  8091.854022                       # Cycle average of tags in use
system.l2.tags.total_refs                     2592993                       # Total number of references to valid blocks.
system.l2.tags.sampled_refs                    288442                       # Sample count of references to valid blocks.
system.l2.tags.avg_refs                      8.989651                       # Average number of references to valid blocks.
system.l2.tags.warmup_cycle                     87000                       # Cycle when the warmup percentage was hit.
system.l2.tags.occ_blocks::.writebacks      13.991771                       # Average occupied blocks per requestor
system.l2.tags.occ_blocks::.cpu.inst        25.184448                       # Average occupied blocks per requestor
system.l2.tags.occ_blocks::.cpu.data      8052.677802                       # Average occupied blocks per requestor
system.l2.tags.occ_percent::.writebacks      0.001708                       # Average percentage of cache occupancy
system.l2.tags.occ_percent::.cpu.inst        0.003074                       # Average percentage of cache occupancy
system.l2.tags.occ_percent::.cpu.data        0.982993                       # Average percentage of cache occupancy
system.l2.tags.occ_percent::total            0.987775                       # Average percentage of cache occupancy
system.l2.tags.occ_task_id_blocks::1024          8192                       # Occupied blocks per task id
system.l2.tags.age_task_id_blocks_1024::0           33                       # Occupied blocks per task id
system.l2.tags.age_task_id_blocks_1024::1          437                       # Occupied blocks per task id
system.l2.tags.age_task_id_blocks_1024::2         1901                       # Occupied blocks per task id
system.l2.tags.age_task_id_blocks_1024::3         5164                       # Occupied blocks per task id
system.l2.tags.age_task_id_blocks_1024::4          657                       # Occupied blocks per task id
system.l2.tags.occ_task_id_percent::1024            1                       # Percentage of cache occupancy per task id
system.l2.tags.tag_accesses                   5474624                       # Number of tag accesses
system.l2.tags.data_accesses                  5474624                       # Number of data accesses
system.cpu_voltage_domain.voltage                   1                       # Voltage in Volts
system.mem_ctrls.pwrStateResidencyTicks::UNDEFINED 177353009000                       # Cumulative time (in ticks) in various power states
system.mem_ctrls.bytes_read::.cpu.inst          42624                       # Number of bytes read from this memory
system.mem_ctrls.bytes_read::.cpu.data       18359424                       # Number of bytes read from this memory
system.mem_ctrls.bytes_read::total           18402048                       # Number of bytes read from this memory
system.mem_ctrls.bytes_inst_read::.cpu.inst        42624                       # Number of instructions bytes read from this memory
system.mem_ctrls.bytes_inst_read::total         42624                       # Number of instructions bytes read from this memory
system.mem_ctrls.bytes_written::.writebacks     12803008                       # Number of bytes written to this memory
system.mem_ctrls.bytes_written::total        12803008                       # Number of bytes written to this memory
system.mem_ctrls.num_reads::.cpu.inst             666                       # Number of read requests responded to by this memory
system.mem_ctrls.num_reads::.cpu.data          286866                       # Number of read requests responded to by this memory
system.mem_ctrls.num_reads::total              287532                       # Number of read requests responded to by this memory
system.mem_ctrls.num_writes::.writebacks       200047                       # Number of write requests responded to by this memory
system.mem_ctrls.num_writes::total             200047                       # Number of write requests responded to by this memory
system.mem_ctrls.bw_read::.cpu.inst            240334                       # Total read bandwidth from this memory (bytes/s)
system.mem_ctrls.bw_read::.cpu.data         103519101                       # Total read bandwidth from this memory (bytes/s)
system.mem_ctrls.bw_read::total             103759435                       # Total read bandwidth from this memory (bytes/s)
system.mem_ctrls.bw_inst_read::.cpu.inst       240334                       # Instruction read bandwidth from this memory (bytes/s)
system.mem_ctrls.bw_inst_read::total           240334                       # Instruction read bandwidth from this memory (bytes/s)
system.mem_ctrls.bw_write::.writebacks       72189404                       # Write bandwidth from this memory (bytes/s)
system.mem_ctrls.bw_write::total             72189404                       # Write bandwidth from this memory (bytes/s)
system.mem_ctrls.bw_total::.writebacks       72189404                       # Total bandwidth to/from this memory (bytes/s)
system.mem_ctrls.bw_total::.cpu.inst           240334                       # Total bandwidth to/from this memory (bytes/s)
system.mem_ctrls.bw_total::.cpu.data        103519101                       # Total bandwidth to/from this memory (bytes/s)
system.mem_ctrls.bw_total::total            175948839                       # Total bandwidth to/from this memory (bytes/s)
system.mem_ctrls.avgPriority_.writebacks::samples    200010.00                       # Average QoS priority value for accepted requests
system.mem_ctrls.avgPriority_.cpu.inst::samples       666.00                       # Average QoS priority value for accepted requests
system.mem_ctrls.avgPriority_.cpu.data::samples    285899.00                       # Average QoS priority value for accepted requests
system.mem_ctrls.priorityMinLatency      0.000000018750                       # per QoS priority minimum request to response latency (s)
system.mem_ctrls.priorityMaxLatency      0.007549078500                       # per QoS priority maximum request to response latency (s)
system.mem_ctrls.numReadWriteTurnArounds        11719                       # Number of turnarounds from READ to WRITE
system.mem_ctrls.numWriteReadTurnArounds        11719                       # Number of turnarounds from WRITE to READ
system.mem_ctrls.numStayReadState              806270                       # Number of times bus staying in READ state
system.mem_ctrls.numStayWriteState             188596                       # Number of times bus staying in WRITE state
system.mem_ctrls.readReqs                      287532                       # Number of read requests accepted
system.mem_ctrls.writeReqs                     200047                       # Number of write requests accepted
system.mem_ctrls.readBursts                    287532                       # Number of DRAM read bursts, including those serviced by the write queue
system.mem_ctrls.writeBursts                   200047                       # Number of DRAM write bursts, including those merged in the write queue
system.mem_ctrls.servicedByWrQ                    967                       # Number of DRAM read bursts serviced by the write queue
system.mem_ctrls.mergedWrBursts                    37                       # Number of DRAM write bursts merged with an existing one
system.mem_ctrls.neitherReadNorWriteReqs            0                       # Number of requests that are neither read nor write
system.mem_ctrls.perBankRdBursts::0             17699                       # Per bank write bursts
system.mem_ctrls.perBankRdBursts::1             18858                       # Per bank write bursts
system.mem_ctrls.perBankRdBursts::2             18488                       # Per bank write bursts
system.mem_ctrls.perBankRdBursts::3             19630                       # Per bank write bursts
system.mem_ctrls.perBankRdBursts::4             16952                       # Per bank write bursts
system.mem_ctrls.perBankRdBursts::5             17830                       # Per bank write bursts
system.mem_ctrls.perBankRdBursts::6             17796                       # Per bank write bursts
system.mem_ctrls.perBankRdBursts::7             18037                       # Per bank write bursts
system.mem_ctrls.perBankRdBursts::8             17307                       # Per bank write bursts
system.mem_ctrls.perBankRdBursts::9             16404                       # Per bank write bursts
system.mem_ctrls.perBankRdBursts::10            17038                       # Per bank write bursts
system.mem_ctrls.perBankRdBursts::11            18464                       # Per bank write bursts
system.mem_ctrls.perBankRdBursts::12            17516                       # Per bank write bursts
system.mem_ctrls.perBankRdBursts::13            18050                       # Per bank write bursts
system.mem_ctrls.perBankRdBursts::14            17917                       # Per bank write bursts
system.mem_ctrls.perBankRdBursts::15            18579                       # Per bank write bursts
system.mem_ctrls.perBankWrBursts::0             12073                       # Per bank write bursts
system.mem_ctrls.perBankWrBursts::1             13277                       # Per bank write bursts
system.mem_ctrls.perBankWrBursts::2             13156                       # Per bank write bursts
system.mem_ctrls.perBankWrBursts::3             14440                       # Per bank write bursts
system.mem_ctrls.perBankWrBursts::4             11646                       # Per bank write bursts
system.mem_ctrls.perBankWrBursts::5             12394                       # Per bank write bursts
system.mem_ctrls.perBankWrBursts::6             12307                       # Per bank write bursts
system.mem_ctrls.perBankWrBursts::7             12645                       # Per bank write bursts
system.mem_ctrls.perBankWrBursts::8             12006                       # Per bank write bursts
system.mem_ctrls.perBankWrBursts::9             11198                       # Per bank write bursts
system.mem_ctrls.perBankWrBursts::10            11890                       # Per bank write bursts
system.mem_ctrls.perBankWrBursts::11            12796                       # Per bank write bursts
system.mem_ctrls.perBankWrBursts::12            11967                       # Per bank write bursts
system.mem_ctrls.perBankWrBursts::13            12573                       # Per bank write bursts
system.mem_ctrls.perBankWrBursts::14            12396                       # Per bank write bursts
system.mem_ctrls.perBankWrBursts::15            13228                       # Per bank write bursts
system.mem_ctrls.avgRdQLen                       1.05                       # Average read queue length when enqueuing
system.mem_ctrls.avgWrQLen                      24.76                       # Average write queue length when enqueuing
system.mem_ctrls.totQLat                   4790738250                       # Total ticks spent queuing
system.mem_ctrls.totBusLat                 1432825000                       # Total ticks spent in databus transfers
system.mem_ctrls.totMemAccLat             10163832000                       # Total ticks spent from burst creation until serviced by the DRAM
system.mem_ctrls.avgQLat                     16717.81                       # Average queueing delay per DRAM burst
system.mem_ctrls.avgBusLat                    5000.00                       # Average bus latency per DRAM burst
system.mem_ctrls.avgMemAccLat                35467.81                       # Average memory access latency per DRAM burst
system.mem_ctrls.numRdRetry                         0                       # Number of times read queue was full causing retry
system.mem_ctrls.numWrRetry                         0                       # Number of times write queue was full causing retry
system.mem_ctrls.readRowHits                   144630                       # Number of row buffer hits during reads
system.mem_ctrls.writeRowHits                  102039                       # Number of row buffer hits during writes
system.mem_ctrls.readRowHitRate                 50.47                       # Row buffer hit rate for reads
system.mem_ctrls.writeRowHitRate                51.02                       # Row buffer hit rate for writes
system.mem_ctrls.readPktSize::0                     0                       # Read request sizes (log2)
system.mem_ctrls.readPktSize::1                     0                       # Read request sizes (log2)
system.mem_ctrls.readPktSize::2                     0                       # Read request sizes (log2)
system.mem_ctrls.readPktSize::3                     0                       # Read request sizes (log2)
system.mem_ctrls.readPktSize::4                     0                       # Read request sizes (log2)
system.mem_ctrls.readPktSize::5                     0                       # Read request sizes (log2)
system.mem_ctrls.readPktSize::6                287532                       # Read request sizes (log2)
system.mem_ctrls.writePktSize::0                    0                       # Write request sizes (log2)
system.mem_ctrls.writePktSize::1                    0                       # Write request sizes (log2)
system.mem_ctrls.writePktSize::2                    0                       # Write request sizes (log2)
system.mem_ctrls.writePktSize::3                    0                       # Write request sizes (log2)
system.mem_ctrls.writePktSize::4                    0                       # Write request sizes (log2)
system.mem_ctrls.writePktSize::5                    0                       # Write request sizes (log2)
system.mem_ctrls.writePktSize::6               200047                       # Write request sizes (log2)
system.mem_ctrls.rdQLenPdf::0                  234819                       # What read queue length does an incoming req see
system.mem_ctrls.rdQLenPdf::1                   51546                       # What read queue length does an incoming req see
system.mem_ctrls.rdQLenPdf::2                     122                       # What read queue length does an incoming req see
system.mem_ctrls.rdQLenPdf::3                      77                       # What read queue length does an incoming req see
system.mem_ctrls.rdQLenPdf::4                       1                       # What read queue length does an incoming req see
system.mem_ctrls.rdQLenPdf::5                       0                       # What read queue length does an incoming req see
system.mem_ctrls.rdQLenPdf::6                       0                       # What read queue length does an incoming req see
system.mem_ctrls.rdQLenPdf::7                       0                       # What read queue length does an incoming req see
system.mem_ctrls.rdQLenPdf::8                       0                       # What read queue length does an incoming req see
system.mem_ctrls.rdQLenPdf::9                       0                       # What read queue length does an incoming req see
system.mem_ctrls.rdQLenPdf::10                      0                       # What read queue length does an incoming req see
system.mem_ctrls.rdQLenPdf::11                      0                       # What read queue length does an incoming req see
system.mem_ctrls.rdQLenPdf::12                      0                       # What read queue length does an incoming req see
system.mem_ctrls.rdQLenPdf::13                      0                       # What read queue length does an incoming req see
system.mem_ctrls.rdQLenPdf::14                      0                       # What read queue length does an incoming req see
system.mem_ctrls.rdQLenPdf::15                      0                       # What read queue length does an incoming req see
system.mem_ctrls.rdQLenPdf::16                      0                       # What read queue length does an incoming req see
system.mem_ctrls.rdQLenPdf::17                      0                       # What read queue length does an incoming req see
system.mem_ctrls.rdQLenPdf::18                      0                       # What read queue length does an incoming req see
system.mem_ctrls.rdQLenPdf::19                      0                       # What read queue length does an incoming req see
system.mem_ctrls.rdQLenPdf::20                      0                       # What read queue length does an incoming req see
system.mem_ctrls.rdQLenPdf::21                      0                       # What read queue length does an incoming req see
system.mem_ctrls.rdQLenPdf::22                      0                       # What read queue length does an incoming req see
system.mem_ctrls.rdQLenPdf::23                      0                       # What read queue length does an incoming req see
system.mem_ctrls.rdQLenPdf::24                      0                       # What read queue length does an incoming req see
system.mem_ctrls.rdQLenPdf::25                      0                       # What read queue length does an incoming req see
system.mem_ctrls.rdQLenPdf::26                      0                       # What read queue length does an incoming req see
system.mem_ctrls.rdQLenPdf::27                      0                       # What read queue length does an incoming req see
system.mem_ctrls.rdQLenPdf::28                      0                       # What read queue length does an incoming req see
system.mem_ctrls.rdQLenPdf::29                      0                       # What read queue length does an incoming req see
system.mem_ctrls.rdQLenPdf::30                      0                       # What read queue length does an incoming req see
system.mem_ctrls.rdQLenPdf::31                      0                       # What read queue length does an incoming req see
system.mem_ctrls.wrQLenPdf::0                       1                       # What write queue length does an incoming req see
system.mem_ctrls.wrQLenPdf::1                       1                       # What write queue length does an incoming req see
system.mem_ctrls.wrQLenPdf::2                       1                       # What write queue length does an incoming req see
system.mem_ctrls.wrQLenPdf::3                       1                       # What write queue length does an incoming req see
system.mem_ctrls.wrQLenPdf::4                       1                       # What write queue length does an incoming req see
system.mem_ctrls.wrQLenPdf::5                       1                       # What write queue length does an incoming req see
system.mem_ctrls.wrQLenPdf::6                       1                       # What write queue length does an incoming req see
system.mem_ctrls.wrQLenPdf::7                       1                       # What write queue length does an incoming req see
system.mem_ctrls.wrQLenPdf::8                       1                       # What write queue length does an incoming req see
system.mem_ctrls.wrQLenPdf::9                       1                       # What write queue length does an incoming req see
system.mem_ctrls.wrQLenPdf::10                      1                       # What write queue length does an incoming req see
system.mem_ctrls.wrQLenPdf::11                      1                       # What write queue length does an incoming req see
system.mem_ctrls.wrQLenPdf::12                      1                       # What write queue length does an incoming req see
system.mem_ctrls.wrQLenPdf::13                      1                       # What write queue length does an incoming req see
system.mem_ctrls.wrQLenPdf::14                      1                       # What write queue length does an incoming req see
system.mem_ctrls.wrQLenPdf::15                   5789                       # What write queue length does an incoming req see
system.mem_ctrls.wrQLenPdf::16                   6060                       # What write queue length does an incoming req see
system.mem_ctrls.wrQLenPdf::17                  11483                       # What write queue length does an incoming req see
system.mem_ctrls.wrQLenPdf::18                  11808                       # What write queue length does an incoming req see
system.mem_ctrls.wrQLenPdf::19                  11786                       # What write queue length does an incoming req see
system.mem_ctrls.wrQLenPdf::20                  11770                       # What write queue length does an incoming req see
system.mem_ctrls.wrQLenPdf::21                  11843                       # What write queue length does an incoming req see
system.mem_ctrls.wrQLenPdf::22                  11814                       # What write queue length does an incoming req see
system.mem_ctrls.wrQLenPdf::23                  11796                       # What write queue length does an incoming req see
system.mem_ctrls.wrQLenPdf::24                  11824                       # What write queue length does an incoming req see
system.mem_ctrls.wrQLenPdf::25                  11775                       # What write queue length does an incoming req see
system.mem_ctrls.wrQLenPdf::26                  11756                       # What write queue length does an incoming req see
system.mem_ctrls.wrQLenPdf::27                  11758                       # What write queue length does an incoming req see
system.mem_ctrls.wrQLenPdf::28                  11766                       # What write queue length does an incoming req see
system.mem_ctrls.wrQLenPdf::29                  11761                       # What write queue length does an incoming req see
system.mem_ctrls.wrQLenPdf::30                  11723                       # What write queue length does an incoming req see
system.mem_ctrls.wrQLenPdf::31                  11758                       # What write queue length does an incoming req see
system.mem_ctrls.wrQLenPdf::32                  11719                       # What write queue length does an incoming req see
system.mem_ctrls.wrQLenPdf::33                      6                       # What write queue length does an incoming req see
system.mem_ctrls.wrQLenPdf::34                      0                       # What write queue length does an incoming req see
system.mem_ctrls.wrQLenPdf::35                      0                       # What write queue length does an incoming req see
system.mem_ctrls.wrQLenPdf::36                      0                       # What write queue length does an incoming req see
system.mem_ctrls.wrQLenPdf::37                      0                       # What write queue length does an incoming req see
system.mem_ctrls.wrQLenPdf::38                      0                       # What write queue length does an incoming req see
system.mem_ctrls.wrQLenPdf::39                      0                       # What write queue length does an incoming req see
system.mem_ctrls.wrQLenPdf::40                      0                       # What write queue length does an incoming req see
system.mem_ctrls.wrQLenPdf::41                      0                       # What write queue length does an incoming req see
system.mem_ctrls.wrQLenPdf::42                      0                       # What write queue length does an incoming req see
system.mem_ctrls.wrQLenPdf::43                      0                       # What write queue length does an incoming req see
system.mem_ctrls.wrQLenPdf::44                      0                       # What write queue length does an incoming req see
system.mem_ctrls.wrQLenPdf::45                      0                       # What write queue length does an incoming req see
system.mem_ctrls.wrQLenPdf::46                      0                       # What write queue length does an incoming req see
system.mem_ctrls.wrQLenPdf::47                      0                       # What write queue length does an incoming req see
system.mem_ctrls.wrQLenPdf::48                      0                       # What write queue length does an incoming req see
system.mem_ctrls.wrQLenPdf::49                      0                       # What write queue length does an incoming req see
system.mem_ctrls.wrQLenPdf::50                      0                       # What write queue length does an incoming req see
system.mem_ctrls.wrQLenPdf::51                      0                       # What write queue length does an incoming req see
system.mem_ctrls.wrQLenPdf::52                      0                       # What write queue length does an incoming req see
system.mem_ctrls.wrQLenPdf::53                      0                       # What write queue length does an incoming req see
system.mem_ctrls.wrQLenPdf::54                      0                       # What write queue length does an incoming req see
system.mem_ctrls.wrQLenPdf::55                      0                       # What write queue length does an incoming req see
system.mem_ctrls.wrQLenPdf::56                      0                       # What write queue length does an incoming req see
system.mem_ctrls.wrQLenPdf::57                      0                       # What write queue length does an incoming req see
system.mem_ctrls.wrQLenPdf::58                      0                       # What write queue length does an incoming req see
system.mem_ctrls.wrQLenPdf::59                      0                       # What write queue length does an incoming req see
system.mem_ctrls.wrQLenPdf::60                      0                       # What write queue length does an incoming req see
system.mem_ctrls.wrQLenPdf::61                      0                       # What write queue length does an incoming req see
system.mem_ctrls.wrQLenPdf::62                      0                       # What write queue length does an incoming req see
system.mem_ctrls.wrQLenPdf::63                      0                       # What write queue length does an incoming req see
system.mem_ctrls.bytesPerActivate::samples       239881                       # Bytes accessed per row activation
system.mem_ctrls.bytesPerActivate::mean    129.810498                       # Bytes accessed per row activation
system.mem_ctrls.bytesPerActivate::gmean    87.945951                       # Bytes accessed per row activation
system.mem_ctrls.bytesPerActivate::stdev   187.599305                       # Bytes accessed per row activation
system.mem_ctrls.bytesPerActivate::0-127       185146     77.18%     77.18% # Bytes accessed per row activation
system.mem_ctrls.bytesPerActivate::128-255        29499     12.30%     89.48% # Bytes accessed per row activation
system.mem_ctrls.bytesPerActivate::256-383         5899      2.46%     91.94% # Bytes accessed per row activation
system.mem_ctrls.bytesPerActivate::384-511         1734      0.72%     92.66% # Bytes accessed per row activation
system.mem_ctrls.bytesPerActivate::512-639         9153      3.82%     96.48% # Bytes accessed per row activation
system.mem_ctrls.bytesPerActivate::640-767          945      0.39%     96.87% # Bytes accessed per row activation
system.mem_ctrls.bytesPerActivate::768-895          559      0.23%     97.10% # Bytes accessed per row activation
system.mem_ctrls.bytesPerActivate::896-1023          508      0.21%     97.32% # Bytes accessed per row activation
system.mem_ctrls.bytesPerActivate::1024-1151         6438      2.68%    100.00% # Bytes accessed per row activation
system.mem_ctrls.bytesPerActivate::total       239881                       # Bytes accessed per row activation
system.mem_ctrls.rdPerTurnAround::samples        11719                       # Reads before turning the bus around for writes
system.mem_ctrls.rdPerTurnAround::mean      24.452684                       # Reads before turning the bus around for writes
system.mem_ctrls.rdPerTurnAround::gmean     22.053338                       # Reads before turning the bus around for writes
system.mem_ctrls.rdPerTurnAround::stdev     25.010889                       # Reads before turning the bus around for writes
system.mem_ctrls.rdPerTurnAround::0-63          11518     98.28%     98.28% # Reads before turning the bus around for writes
system.mem_ctrls.rdPerTurnAround::64-127          134      1.14%     99.43% # Reads before turning the bus around for writes
system.mem_ctrls.rdPerTurnAround::128-191           23      0.20%     99.62% # Reads before turning the bus around for writes
system.mem_ctrls.rdPerTurnAround::192-255           10      0.09%     99.71% # Reads before turning the bus around for writes
system.mem_ctrls.rdPerTurnAround::256-319           24      0.20%     99.91% # Reads before turning the bus around for writes
[...]
system.cpu.icache.tags.occ_blocks::.cpu.inst   498.000591                       # Average occupied blocks per requestor
system.cpu.icache.tags.occ_percent::.cpu.inst     0.243164                       # Average percentage of cache occupancy
system.cpu.icache.tags.occ_percent::total     0.243164                       # Average percentage of cache occupancy
system.cpu.icache.tags.occ_task_id_blocks::1024          598                       # Occupied blocks per task id
system.cpu.icache.tags.age_task_id_blocks_1024::4          598                       # Occupied blocks per task id
system.cpu.icache.tags.occ_task_id_percent::1024     0.291992                       # Percentage of cache occupancy per task id
system.cpu.icache.tags.tag_accesses          10201832                       # Number of tag accesses
system.cpu.icache.tags.data_accesses         10201832                       # Number of data accesses
system.cpu.dtb.walker.pwrStateResidencyTicks::UNDEFINED 177353009000                       # Cumulative time (in ticks) in various power states
system.cpu.dtb.stage2_mmu.stage2_tlb.walker.pwrStateResidencyTicks::UNDEFINED 177353009000                       # Cumulative time (in ticks) in various power states
system.cpu.dcache.pwrStateResidencyTicks::UNDEFINED 177353009000                       # Cumulative time (in ticks) in various power states
system.cpu.dcache.demand_hits::.cpu.data     50813880                       # number of demand (read+write) hits
system.cpu.dcache.demand_hits::total         50813880                       # number of demand (read+write) hits
system.cpu.dcache.overall_hits::.cpu.data     50814233                       # number of overall hits
system.cpu.dcache.overall_hits::total        50814233                       # number of overall hits
system.cpu.dcache.demand_misses::.cpu.data      1356637                       # number of demand (read+write) misses
system.cpu.dcache.demand_misses::total        1356637                       # number of demand (read+write) misses
system.cpu.dcache.overall_misses::.cpu.data      1364700                       # number of overall misses
system.cpu.dcache.overall_misses::total       1364700                       # number of overall misses
system.cpu.dcache.demand_miss_latency::.cpu.data  60658391999                       # number of demand (read+write) miss cycles
system.cpu.dcache.demand_miss_latency::total  60658391999                       # number of demand (read+write) miss cycles
system.cpu.dcache.overall_miss_latency::.cpu.data  60658391999                       # number of overall miss cycles
system.cpu.dcache.overall_miss_latency::total  60658391999                       # number of overall miss cycles
system.cpu.dcache.demand_accesses::.cpu.data     52170517                       # number of demand (read+write) accesses
system.cpu.dcache.demand_accesses::total     52170517                       # number of demand (read+write) accesses
system.cpu.dcache.overall_accesses::.cpu.data     52178933                       # number of overall (read+write) accesses
system.cpu.dcache.overall_accesses::total     52178933                       # number of overall (read+write) accesses
system.cpu.dcache.demand_miss_rate::.cpu.data     0.026004                       # miss rate for demand accesses
system.cpu.dcache.demand_miss_rate::total     0.026004                       # miss rate for demand accesses
system.cpu.dcache.overall_miss_rate::.cpu.data     0.026154                       # miss rate for overall accesses
system.cpu.dcache.overall_miss_rate::total     0.026154                       # miss rate for overall accesses
system.cpu.dcache.demand_avg_miss_latency::.cpu.data 44712.323193                       # average overall miss latency
system.cpu.dcache.demand_avg_miss_latency::total 44712.323193                       # average overall miss latency
system.cpu.dcache.overall_avg_miss_latency::.cpu.data 44448.151241                       # average overall miss latency
system.cpu.dcache.overall_avg_miss_latency::total 44448.151241                       # average overall miss latency
system.cpu.dcache.blocked_cycles::no_mshrs        65363                       # number of cycles access was blocked
system.cpu.dcache.blocked_cycles::no_targets            0                       # number of cycles access was blocked
system.cpu.dcache.blocked::no_mshrs              3171                       # number of cycles access was blocked
system.cpu.dcache.blocked::no_targets               0                       # number of cycles access was blocked
system.cpu.dcache.avg_blocked_cycles::no_mshrs    20.612740                       # average number of cycles each access was blocked
system.cpu.dcache.avg_blocked_cycles::no_targets          nan                       # average number of cycles each access was blocked
system.cpu.dcache.writebacks::.writebacks      1157629                       # number of writebacks
system.cpu.dcache.writebacks::total           1157629                       # number of writebacks
system.cpu.dcache.demand_mshr_hits::.cpu.data        67042                       # number of demand (read+write) MSHR hits
system.cpu.dcache.demand_mshr_hits::total        67042                       # number of demand (read+write) MSHR hits
system.cpu.dcache.overall_mshr_hits::.cpu.data        67042                       # number of overall MSHR hits
system.cpu.dcache.overall_mshr_hits::total        67042                       # number of overall MSHR hits
system.cpu.dcache.demand_mshr_misses::.cpu.data      1289595                       # number of demand (read+write) MSHR misses
system.cpu.dcache.demand_mshr_misses::total      1289595                       # number of demand (read+write) MSHR misses
system.cpu.dcache.overall_mshr_misses::.cpu.data      1297652                       # number of overall MSHR misses
system.cpu.dcache.overall_mshr_misses::total      1297652                       # number of overall MSHR misses
system.cpu.dcache.demand_mshr_miss_latency::.cpu.data  56051609000                       # number of demand (read+write) MSHR miss cycles
system.cpu.dcache.demand_mshr_miss_latency::total  56051609000                       # number of demand (read+write) MSHR miss cycles
system.cpu.dcache.overall_mshr_miss_latency::.cpu.data  56840414984                       # number of overall MSHR miss cycles
system.cpu.dcache.overall_mshr_miss_latency::total  56840414984                       # number of overall MSHR miss cycles
system.cpu.dcache.demand_mshr_miss_rate::.cpu.data     0.024719                       # mshr miss rate for demand accesses
system.cpu.dcache.demand_mshr_miss_rate::total     0.024719                       # mshr miss rate for demand accesses
system.cpu.dcache.overall_mshr_miss_rate::.cpu.data     0.024869                       # mshr miss rate for overall accesses
system.cpu.dcache.overall_mshr_miss_rate::total     0.024869                       # mshr miss rate for overall accesses
system.cpu.dcache.demand_avg_mshr_miss_latency::.cpu.data 43464.505523                       # average overall mshr miss latency
system.cpu.dcache.demand_avg_mshr_miss_latency::total 43464.505523                       # average overall mshr miss latency
system.cpu.dcache.overall_avg_mshr_miss_latency::.cpu.data 43802.510214                       # average overall mshr miss latency
system.cpu.dcache.overall_avg_mshr_miss_latency::total 43802.510214                       # average overall mshr miss latency
system.cpu.dcache.replacements                1297401                       # number of replacements
system.cpu.dcache.ReadReq_hits::.cpu.data     40358877                       # number of ReadReq hits
system.cpu.dcache.ReadReq_hits::total        40358877                       # number of ReadReq hits
system.cpu.dcache.ReadReq_misses::.cpu.data       833461                       # number of ReadReq misses
system.cpu.dcache.ReadReq_misses::total        833461                       # number of ReadReq misses
system.cpu.dcache.ReadReq_miss_latency::.cpu.data  30831898000                       # number of ReadReq miss cycles
system.cpu.dcache.ReadReq_miss_latency::total  30831898000                       # number of ReadReq miss cycles
system.cpu.dcache.ReadReq_accesses::.cpu.data     41192338                       # number of ReadReq accesses(hits+misses)
system.cpu.dcache.ReadReq_accesses::total     41192338                       # number of ReadReq accesses(hits+misses)
system.cpu.dcache.ReadReq_miss_rate::.cpu.data     0.020233                       # miss rate for ReadReq accesses
system.cpu.dcache.ReadReq_miss_rate::total     0.020233                       # miss rate for ReadReq accesses
system.cpu.dcache.ReadReq_avg_miss_latency::.cpu.data 36992.610332                       # average ReadReq miss latency
system.cpu.dcache.ReadReq_avg_miss_latency::total 36992.610332                       # average ReadReq miss latency
system.cpu.dcache.ReadReq_mshr_hits::.cpu.data         6209                       # number of ReadReq MSHR hits
system.cpu.dcache.ReadReq_mshr_hits::total         6209                       # number of ReadReq MSHR hits
system.cpu.dcache.ReadReq_mshr_misses::.cpu.data       827252                       # number of ReadReq MSHR misses
system.cpu.dcache.ReadReq_mshr_misses::total       827252                       # number of ReadReq MSHR misses
system.cpu.dcache.ReadReq_mshr_miss_latency::.cpu.data  28910127000                       # number of ReadReq MSHR miss cycles
system.cpu.dcache.ReadReq_mshr_miss_latency::total  28910127000                       # number of ReadReq MSHR miss cycles
system.cpu.dcache.ReadReq_mshr_miss_rate::.cpu.data     0.020083                       # mshr miss rate for ReadReq accesses
system.cpu.dcache.ReadReq_mshr_miss_rate::total     0.020083                       # mshr miss rate for ReadReq accesses
system.cpu.dcache.ReadReq_avg_mshr_miss_latency::.cpu.data 34947.182962                       # average ReadReq mshr miss latency
system.cpu.dcache.ReadReq_avg_mshr_miss_latency::total 34947.182962                       # average ReadReq mshr miss latency
system.cpu.dcache.WriteReq_hits::.cpu.data     10455003                       # number of WriteReq hits
system.cpu.dcache.WriteReq_hits::total       10455003                       # number of WriteReq hits
system.cpu.dcache.WriteReq_misses::.cpu.data       523176                       # number of WriteReq misses
system.cpu.dcache.WriteReq_misses::total       523176                       # number of WriteReq misses
system.cpu.dcache.WriteReq_miss_latency::.cpu.data  29826493999                       # number of WriteReq miss cycles
system.cpu.dcache.WriteReq_miss_latency::total  29826493999                       # number of WriteReq miss cycles
system.cpu.dcache.WriteReq_accesses::.cpu.data     10978179                       # number of WriteReq accesses(hits+misses)
system.cpu.dcache.WriteReq_accesses::total     10978179                       # number of WriteReq accesses(hits+misses)
system.cpu.dcache.WriteReq_miss_rate::.cpu.data     0.047656                       # miss rate for WriteReq accesses
system.cpu.dcache.WriteReq_miss_rate::total     0.047656                       # miss rate for WriteReq accesses
system.cpu.dcache.WriteReq_avg_miss_latency::.cpu.data 57010.440079                       # average WriteReq miss latency
system.cpu.dcache.WriteReq_avg_miss_latency::total 57010.440079                       # average WriteReq miss latency
system.cpu.dcache.WriteReq_mshr_hits::.cpu.data        60833                       # number of WriteReq MSHR hits
system.cpu.dcache.WriteReq_mshr_hits::total        60833                       # number of WriteReq MSHR hits
system.cpu.dcache.WriteReq_mshr_misses::.cpu.data       462343                       # number of WriteReq MSHR misses
system.cpu.dcache.WriteReq_mshr_misses::total       462343                       # number of WriteReq MSHR misses
system.cpu.dcache.WriteReq_mshr_miss_latency::.cpu.data  27141482000                       # number of WriteReq MSHR miss cycles
system.cpu.dcache.WriteReq_mshr_miss_latency::total  27141482000                       # number of WriteReq MSHR miss cycles
system.cpu.dcache.WriteReq_mshr_miss_rate::.cpu.data     0.042115                       # mshr miss rate for WriteReq accesses
system.cpu.dcache.WriteReq_mshr_miss_rate::total     0.042115                       # mshr miss rate for WriteReq accesses
system.cpu.dcache.WriteReq_avg_mshr_miss_latency::.cpu.data 58704.213106                       # average WriteReq mshr miss latency
system.cpu.dcache.WriteReq_avg_mshr_miss_latency::total 58704.213106                       # average WriteReq mshr miss latency
system.cpu.dcache.SoftPFReq_hits::.cpu.data          353                       # number of SoftPFReq hits
system.cpu.dcache.SoftPFReq_hits::total           353                       # number of SoftPFReq hits
system.cpu.dcache.SoftPFReq_misses::.cpu.data         8063                       # number of SoftPFReq misses
system.cpu.dcache.SoftPFReq_misses::total         8063                       # number of SoftPFReq misses
system.cpu.dcache.SoftPFReq_accesses::.cpu.data         8416                       # number of SoftPFReq accesses(hits+misses)
system.cpu.dcache.SoftPFReq_accesses::total         8416                       # number of SoftPFReq accesses(hits+misses)
system.cpu.dcache.SoftPFReq_miss_rate::.cpu.data     0.958056                       # miss rate for SoftPFReq accesses
system.cpu.dcache.SoftPFReq_miss_rate::total     0.958056                       # miss rate for SoftPFReq accesses
system.cpu.dcache.SoftPFReq_mshr_misses::.cpu.data         8057                       # number of SoftPFReq MSHR misses
system.cpu.dcache.SoftPFReq_mshr_misses::total         8057                       # number of SoftPFReq MSHR misses
system.cpu.dcache.SoftPFReq_mshr_miss_latency::.cpu.data    788805984                       # number of SoftPFReq MSHR miss cycles
system.cpu.dcache.SoftPFReq_mshr_miss_latency::total    788805984                       # number of SoftPFReq MSHR miss cycles
system.cpu.dcache.SoftPFReq_mshr_miss_rate::.cpu.data     0.957343                       # mshr miss rate for SoftPFReq accesses
system.cpu.dcache.SoftPFReq_mshr_miss_rate::total     0.957343                       # mshr miss rate for SoftPFReq accesses
system.cpu.dcache.SoftPFReq_avg_mshr_miss_latency::.cpu.data 97903.187787                       # average SoftPFReq mshr miss latency
system.cpu.dcache.SoftPFReq_avg_mshr_miss_latency::total 97903.187787                       # average SoftPFReq mshr miss latency
system.cpu.dcache.LoadLockedReq_hits::.cpu.data           33                       # number of LoadLockedReq hits
system.cpu.dcache.LoadLockedReq_hits::total           33                       # number of LoadLockedReq hits
system.cpu.dcache.LoadLockedReq_misses::.cpu.data            5                       # number of LoadLockedReq misses
system.cpu.dcache.LoadLockedReq_misses::total            5                       # number of LoadLockedReq misses
system.cpu.dcache.LoadLockedReq_miss_latency::.cpu.data       566000                       # number of LoadLockedReq miss cycles
system.cpu.dcache.LoadLockedReq_miss_latency::total       566000                       # number of LoadLockedReq miss cycles
system.cpu.dcache.LoadLockedReq_accesses::.cpu.data           38                       # number of LoadLockedReq accesses(hits+misses)
system.cpu.dcache.LoadLockedReq_accesses::total           38                       # number of LoadLockedReq accesses(hits+misses)
system.cpu.dcache.LoadLockedReq_miss_rate::.cpu.data     0.131579                       # miss rate for LoadLockedReq accesses
system.cpu.dcache.LoadLockedReq_miss_rate::total     0.131579                       # miss rate for LoadLockedReq accesses
system.cpu.dcache.LoadLockedReq_avg_miss_latency::.cpu.data       113200                       # average LoadLockedReq miss latency
system.cpu.dcache.LoadLockedReq_avg_miss_latency::total       113200                       # average LoadLockedReq miss latency
system.cpu.dcache.LoadLockedReq_mshr_misses::.cpu.data            5                       # number of LoadLockedReq MSHR misses
system.cpu.dcache.LoadLockedReq_mshr_misses::total            5                       # number of LoadLockedReq MSHR misses
system.cpu.dcache.LoadLockedReq_mshr_miss_latency::.cpu.data       556000                       # number of LoadLockedReq MSHR miss cycles
system.cpu.dcache.LoadLockedReq_mshr_miss_latency::total       556000                       # number of LoadLockedReq MSHR miss cycles
system.cpu.dcache.LoadLockedReq_mshr_miss_rate::.cpu.data     0.131579                       # mshr miss rate for LoadLockedReq accesses
system.cpu.dcache.LoadLockedReq_mshr_miss_rate::total     0.131579                       # mshr miss rate for LoadLockedReq accesses
system.cpu.dcache.LoadLockedReq_avg_mshr_miss_latency::.cpu.data       111200                       # average LoadLockedReq mshr miss latency
system.cpu.dcache.LoadLockedReq_avg_mshr_miss_latency::total       111200                       # average LoadLockedReq mshr miss latency
system.cpu.dcache.StoreCondReq_hits::.cpu.data           38                       # number of StoreCondReq hits
system.cpu.dcache.StoreCondReq_hits::total           38                       # number of StoreCondReq hits
system.cpu.dcache.StoreCondReq_accesses::.cpu.data           38                       # number of StoreCondReq accesses(hits+misses)
system.cpu.dcache.StoreCondReq_accesses::total           38                       # number of StoreCondReq accesses(hits+misses)
system.cpu.dcache.tags.pwrStateResidencyTicks::UNDEFINED 177353009000                       # Cumulative time (in ticks) in various power states
system.cpu.dcache.tags.tagsinuse           254.485558                       # Cycle average of tags in use
system.cpu.dcache.tags.total_refs            52111961                       # Total number of references to valid blocks.
system.cpu.dcache.tags.sampled_refs           1297657                       # Sample count of references to valid blocks.
system.cpu.dcache.tags.avg_refs             40.158502                       # Average number of references to valid blocks.
system.cpu.dcache.tags.warmup_cycle            223000                       # Cycle when the warmup percentage was hit.
system.cpu.dcache.tags.occ_blocks::.cpu.data   254.485558                       # Average occupied blocks per requestor
system.cpu.dcache.tags.occ_percent::.cpu.data     0.994084                       # Average percentage of cache occupancy
system.cpu.dcache.tags.occ_percent::total     0.994084                       # Average percentage of cache occupancy
system.cpu.dcache.tags.occ_task_id_blocks::1024          256                       # Occupied blocks per task id
system.cpu.dcache.tags.age_task_id_blocks_1024::0           60                       # Occupied blocks per task id
system.cpu.dcache.tags.age_task_id_blocks_1024::1          167                       # Occupied blocks per task id
system.cpu.dcache.tags.age_task_id_blocks_1024::2           29                       # Occupied blocks per task id
system.cpu.dcache.tags.occ_task_id_percent::1024            1                       # Percentage of cache occupancy per task id
system.cpu.dcache.tags.tag_accesses          53476666                       # Number of tag accesses
system.cpu.dcache.tags.data_accesses         53476666                       # Number of data accesses
system.cpu.itb.walker.pwrStateResidencyTicks::UNDEFINED 177353009000                       # Cumulative time (in ticks) in various power states
system.cpu.itb.stage2_mmu.stage2_tlb.walker.pwrStateResidencyTicks::UNDEFINED 177353009000                       # Cumulative time (in ticks) in various power states

---------- End Simulation Statistics   ----------
