
---------- Begin Simulation Statistics ----------
final_tick                               172792976000                       # Number of ticks from beginning of simulation (restored from checkpoints and never reset)
host_inst_rate                                 305166                       # Simulator instruction rate (inst/s)
host_mem_usage                                 709664                       # Number of bytes of host memory used
host_op_rate                                   305775                       # Simulator op (including micro ops) rate (op/s)
host_seconds                                   327.69                       # Real time elapsed on the host
host_tick_rate                              527305959                       # Simulator tick rate (ticks/s)
sim_freq                                 1000000000000                       # Frequency of simulated ticks
sim_insts                                   100000001                       # Number of instructions simulated
sim_ops                                     100199569                       # Number of ops (including micro ops) simulated
sim_seconds                                  0.172793                       # Number of seconds simulated
sim_ticks                                172792976000                       # Number of ticks simulated
system.cpu.branchPred.BTBCorrect                    0                       # Number of correct BTB predictions (this stat may not work properly.
system.cpu.branchPred.BTBHitPct             99.575320                       # BTB Hit Percentage
system.cpu.branchPred.BTBHits                 2104145                       # Number of BTB hits
system.cpu.branchPred.BTBLookups              2113119                       # Number of BTB lookups
system.cpu.branchPred.RASInCorrect                  6                       # Number of incorrect RAS predictions.
system.cpu.branchPred.condIncorrect             83524                       # Number of conditional branches incorrect
system.cpu.branchPred.condPredicted           3635470                       # Number of conditional branches predicted
system.cpu.branchPred.indirectHits                295                       # Number of indirect target hits.
system.cpu.branchPred.indirectLookups             751                       # Number of indirect predictor lookups.
system.cpu.branchPred.indirectMisses              456                       # Number of indirect misses.
system.cpu.branchPred.lookups                 4389812                       # Number of BP lookups
system.cpu.branchPred.usedRAS                   66030                       # Number of times the RAS was used to get a target.
system.cpu.branchPredindirectMispredicted          171                       # Number of mispredicted indirect branches.
system.cpu.committedInsts                   100000001                       # Number of instructions committed
system.cpu.committedOps                     100199569                       # Number of ops (including micro ops) committed
system.cpu.cpi                               1.727930                       # CPI: cycles per instruction
system.cpu.discardedOps                        197134                       # Number of ops (including micro ops) which were discarded before commit
system.cpu.dtb.accesses                             0                       # DTB accesses
system.cpu.dtb.align_faults                         0                       # Number of TLB faults due to alignment restrictions
system.cpu.dtb.domain_faults                        0                       # Number of TLB faults due to domain restrictions
system.cpu.dtb.flush_entries                        0                       # Number of entries that have been flushed from TLB
system.cpu.dtb.flush_tlb                            0                       # Number of times complete TLB was flushed
system.cpu.dtb.flush_tlb_asid                       0                       # Number of times TLB was flushed by ASID
system.cpu.dtb.flush_tlb_mva                        0                       # Number of times TLB was flushed by MVA
system.cpu.dtb.flush_tlb_mva_asid                   0                       # Number of times TLB was flushed by MVA & ASID
system.cpu.dtb.hits                                 0                       # DTB hits
system.cpu.dtb.inst_accesses                        0                       # ITB inst accesses
system.cpu.dtb.inst_hits                            0                       # ITB inst hits
system.cpu.dtb.inst_misses                          0                       # ITB inst misses
system.cpu.dtb.misses                               0                       # DTB misses
system.cpu.dtb.perms_faults                         0                       # Number of TLB faults due to permissions restrictions
system.cpu.dtb.prefetch_faults                      0                       # Number of TLB faults due to prefetch
system.cpu.dtb.read_accesses                        0                       # DTB read accesses
system.cpu.dtb.read_hits                            0                       # DTB read hits
system.cpu.dtb.read_misses                          0                       # DTB read misses
system.cpu.dtb.stage2_mmu.stage2_tlb.accesses            0                       # DTB accesses
system.cpu.dtb.stage2_mmu.stage2_tlb.align_faults            0                       # Number of TLB faults due to alignment restrictions
system.cpu.dtb.stage2_mmu.stage2_tlb.domain_faults            0                       # Number of TLB faults due to domain restrictions
system.cpu.dtb.stage2_mmu.stage2_tlb.flush_entries            0                       # Number of entries that have been flushed from TLB
system.cpu.dtb.stage2_mmu.stage2_tlb.flush_tlb            0                       # Number of times complete TLB was flushed
system.cpu.dtb.stage2_mmu.stage2_tlb.flush_tlb_asid            0                       # Number of times TLB was flushed by ASID
system.cpu.dtb.stage2_mmu.stage2_tlb.flush_tlb_mva            0                       # Number of times TLB was flushed by MVA
system.cpu.dtb.stage2_mmu.stage2_tlb.flush_tlb_mva_asid            0                       # Number of times TLB was flushed by MVA & ASID
system.cpu.dtb.stage2_mmu.stage2_tlb.hits            0                       # DTB hits
system.cpu.dtb.stage2_mmu.stage2_tlb.inst_accesses            0                       # ITB inst accesses
system.cpu.dtb.stage2_mmu.stage2_tlb.inst_hits            0                       # ITB inst hits
system.cpu.dtb.stage2_mmu.stage2_tlb.inst_misses            0                       # ITB inst misses
system.cpu.dtb.stage2_mmu.stage2_tlb.misses            0                       # DTB misses
system.cpu.dtb.stage2_mmu.stage2_tlb.perms_faults            0                       # Number of TLB faults due to permissions restrictions
system.cpu.dtb.stage2_mmu.stage2_tlb.prefetch_faults            0                       # Number of TLB faults due to prefetch
system.cpu.dtb.stage2_mmu.stage2_tlb.read_accesses            0                       # DTB read accesses
system.cpu.dtb.stage2_mmu.stage2_tlb.read_hits            0                       # DTB read hits
system.cpu.dtb.stage2_mmu.stage2_tlb.read_misses            0                       # DTB read misses
system.cpu.dtb.stage2_mmu.stage2_tlb.walker.walkRequestOrigin_Requested::Data            0                       # Table walker requests started/completed, data/inst
system.cpu.dtb.stage2_mmu.stage2_tlb.walker.walkRequestOrigin_Requested::Inst            0                       # Table walker requests started/completed, data/inst
system.cpu.dtb.stage2_mmu.stage2_tlb.walker.walkRequestOrigin_Requested::total            0                       # Table walker requests started/completed, data/inst
system.cpu.dtb.stage2_mmu.stage2_tlb.walker.walkRequestOrigin_Completed::Data            0                       # Table walker requests started/completed, data/inst
system.cpu.dtb.stage2_mmu.stage2_tlb.walker.walkRequestOrigin_Completed::Inst            0                       # Table walker requests started/completed, data/inst
system.cpu.dtb.stage2_mmu.stage2_tlb.walker.walkRequestOrigin_Completed::total            0                       # Table walker requests started/completed, data/inst
system.cpu.dtb.stage2_mmu.stage2_tlb.walker.walkRequestOrigin::total            0                       # Table walker requests started/completed, data/inst
system.cpu.dtb.stage2_mmu.stage2_tlb.walker.walks            0                       # Table walker walks requested
system.cpu.dtb.stage2_mmu.stage2_tlb.write_accesses            0                       # DTB write accesses
system.cpu.dtb.stage2_mmu.stage2_tlb.write_hits            0                       # DTB write hits
system.cpu.dtb.stage2_mmu.stage2_tlb.write_misses            0                       # DTB write misses
system.cpu.dtb.walker.walkRequestOrigin_Requested::Data            0                       # Table walker requests started/completed, data/inst
system.cpu.dtb.walker.walkRequestOrigin_Requested::Inst            0                       # Table walker requests started/completed, data/inst
system.cpu.dtb.walker.walkRequestOrigin_Requested::total            0                       # Table walker requests started/completed, data/inst
system.cpu.dtb.walker.walkRequestOrigin_Completed::Data            0                       # Table walker requests started/completed, data/inst
system.cpu.dtb.walker.walkRequestOrigin_Completed::Inst            0                       # Table walker requests started/completed, data/inst
system.cpu.dtb.walker.walkRequestOrigin_Completed::total            0                       # Table walker requests started/completed, data/inst
system.cpu.dtb.walker.walkRequestOrigin::total            0                       # Table walker requests started/completed, data/inst
system.cpu.dtb.walker.walks                         0                       # Table walker walks requested
system.cpu.dtb.write_accesses                       0                       # DTB write accesses
system.cpu.dtb.write_hits                           0                       # DTB write hits
system.cpu.dtb.write_misses                         0                       # DTB write misses
system.cpu.fetch2.amo_instructions                  0                       # Number of memory atomic instructions successfully decoded
system.cpu.fetch2.fp_instructions                   0                       # Number of floating point instructions successfully decoded
system.cpu.fetch2.int_instructions           42627583                       # Number of integer instructions successfully decoded
system.cpu.fetch2.load_instructions          43484911                       # Number of memory load instructions successfully decoded
system.cpu.fetch2.store_instructions         11033679                       # Number of memory store instructions successfully decoded
system.cpu.fetch2.vec_instructions                  0                       # Number of SIMD instructions successfully decoded
system.cpu.idleCycles                        39315397                       # Total number of cycles that the object has spent stopped
system.cpu.ipc                               0.578727                       # IPC: instructions per cycle
system.cpu.itb.accesses                             0                       # DTB accesses
system.cpu.itb.align_faults                         0                       # Number of TLB faults due to alignment restrictions
system.cpu.itb.domain_faults                        0                       # Number of TLB faults due to domain restrictions
system.cpu.itb.flush_entries                        0                       # Number of entries that have been flushed from TLB
system.cpu.itb.flush_tlb                            0                       # Number of times complete TLB was flushed
system.cpu.itb.flush_tlb_asid                       0                       # Number of times TLB was flushed by ASID
system.cpu.itb.flush_tlb_mva                        0                       # Number of times TLB was flushed by MVA
system.cpu.itb.flush_tlb_mva_asid                   0                       # Number of times TLB was flushed by MVA & ASID
system.cpu.itb.hits                                 0                       # DTB hits
system.cpu.itb.inst_accesses                        0                       # ITB inst accesses
system.cpu.itb.inst_hits                            0                       # ITB inst hits
system.cpu.itb.inst_misses                          0                       # ITB inst misses
system.cpu.itb.misses                               0                       # DTB misses
system.cpu.itb.perms_faults                         0                       # Number of TLB faults due to permissions restrictions
system.cpu.itb.prefetch_faults                      0                       # Number of TLB faults due to prefetch
system.cpu.itb.read_accesses                        0                       # DTB read accesses
system.cpu.itb.read_hits                            0                       # DTB read hits
system.cpu.itb.read_misses                          0                       # DTB read misses
system.cpu.itb.stage2_mmu.stage2_tlb.accesses            0                       # DTB accesses
system.cpu.itb.stage2_mmu.stage2_tlb.align_faults            0                       # Number of TLB faults due to alignment restrictions
system.cpu.itb.stage2_mmu.stage2_tlb.domain_faults            0                       # Number of TLB faults due to domain restrictions
system.cpu.itb.stage2_mmu.stage2_tlb.flush_entries            0                       # Number of entries that have been flushed from TLB
system.cpu.itb.stage2_mmu.stage2_tlb.flush_tlb            0                       # Number of times complete TLB was flushed
system.cpu.itb.stage2_mmu.stage2_tlb.flush_tlb_asid            0                       # Number of times TLB was flushed by ASID
system.cpu.itb.stage2_mmu.stage2_tlb.flush_tlb_mva            0                       # Number of times TLB was flushed by MVA
system.cpu.itb.stage2_mmu.stage2_tlb.flush_tlb_mva_asid            0                       # Number of times TLB was flushed by MVA & ASID
system.cpu.itb.stage2_mmu.stage2_tlb.hits            0                       # DTB hits
system.cpu.itb.stage2_mmu.stage2_tlb.inst_accesses            0                       # ITB inst accesses
system.cpu.itb.stage2_mmu.stage2_tlb.inst_hits            0                       # ITB inst hits
system.cpu.itb.stage2_mmu.stage2_tlb.inst_misses            0                       # ITB inst misses
system.cpu.itb.stage2_mmu.stage2_tlb.misses            0                       # DTB misses
system.cpu.itb.stage2_mmu.stage2_tlb.perms_faults            0                       # Number of TLB faults due to permissions restrictions
system.cpu.itb.stage2_mmu.stage2_tlb.prefetch_faults            0                       # Number of TLB faults due to prefetch
system.cpu.itb.stage2_mmu.stage2_tlb.read_accesses            0                       # DTB read accesses
system.cpu.itb.stage2_mmu.stage2_tlb.read_hits            0                       # DTB read hits
system.cpu.itb.stage2_mmu.stage2_tlb.read_misses            0                       # DTB read misses
system.cpu.itb.stage2_mmu.stage2_tlb.walker.walkRequestOrigin_Requested::Data            0                       # Table walker requests started/completed, data/inst
system.cpu.itb.stage2_mmu.stage2_tlb.walker.walkRequestOrigin_Requested::Inst            0                       # Table walker requests started/completed, data/inst
system.cpu.itb.stage2_mmu.stage2_tlb.walker.walkRequestOrigin_Requested::total            0                       # Table walker requests started/completed, data/inst
system.cpu.itb.stage2_mmu.stage2_tlb.walker.walkRequestOrigin_Completed::Data            0                       # Table walker requests started/completed, data/inst
system.cpu.itb.stage2_mmu.stage2_tlb.walker.walkRequestOrigin_Completed::Inst            0                       # Table walker requests started/completed, data/inst
system.cpu.itb.stage2_mmu.stage2_tlb.walker.walkRequestOrigin_Completed::total            0                       # Table walker requests started/completed, data/inst
system.cpu.itb.stage2_mmu.stage2_tlb.walker.walkRequestOrigin::total            0                       # Table walker requests started/completed, data/inst
system.cpu.itb.stage2_mmu.stage2_tlb.walker.walks            0                       # Table walker walks requested
system.cpu.itb.stage2_mmu.stage2_tlb.write_accesses            0                       # DTB write accesses
system.cpu.itb.stage2_mmu.stage2_tlb.write_hits            0                       # DTB write hits
system.cpu.itb.stage2_mmu.stage2_tlb.write_misses            0                       # DTB write misses
system.cpu.itb.walker.walkRequestOrigin_Requested::Data            0                       # Table walker requests started/completed, data/inst
system.cpu.itb.walker.walkRequestOrigin_Requested::Inst            0                       # Table walker requests started/completed, data/inst
system.cpu.itb.walker.walkRequestOrigin_Requested::total            0                       # Table walker requests started/completed, data/inst
system.cpu.itb.walker.walkRequestOrigin_Completed::Data            0                       # Table walker requests started/completed, data/inst
system.cpu.itb.walker.walkRequestOrigin_Completed::Inst            0                       # Table walker requests started/completed, data/inst
system.cpu.itb.walker.walkRequestOrigin_Completed::total            0                       # Table walker requests started/completed, data/inst
system.cpu.itb.walker.walkRequestOrigin::total            0                       # Table walker requests started/completed, data/inst
system.cpu.itb.walker.walks                         0                       # Table walker walks requested
system.cpu.itb.write_accesses                       0                       # DTB write accesses
system.cpu.itb.write_hits                           0                       # DTB write hits
system.cpu.itb.write_misses                         0                       # DTB write misses
system.cpu.numCycles                        172792976                       # number of cpu cycles simulated
system.cpu.numFetchSuspends                         0                       # Number of times Execute suspended instruction fetching
system.cpu.numWorkItemsCompleted                    0                       # number of work items this cpu completed
system.cpu.numWorkItemsStarted                      0                       # number of work items this cpu started
system.cpu.op_class_0::No_OpClass                   0      0.00%      0.00% # Class of committed instruction
system.cpu.op_class_0::IntAlu                46443154     46.35%     46.35% # Class of committed instruction
system.cpu.op_class_0::IntMult                  20720      0.02%     46.37% # Class of committed instruction
system.cpu.op_class_0::IntDiv                       0      0.00%     46.37% # Class of committed instruction
system.cpu.op_class_0::FloatAdd                     0      0.00%     46.37% # Class of committed instruction
system.cpu.op_class_0::FloatCmp                     0      0.00%     46.37% # Class of committed instruction
system.cpu.op_class_0::FloatCvt                     0      0.00%     46.37% # Class of committed instruction
system.cpu.op_class_0::FloatMult                    0      0.00%     46.37% # Class of committed instruction
system.cpu.op_class_0::FloatMultAcc                 0      0.00%     46.37% # Class of committed instruction
system.cpu.op_class_0::FloatDiv                     0      0.00%     46.37% # Class of committed instruction
system.cpu.op_class_0::FloatMisc                    0      0.00%     46.37% # Class of committed instruction
system.cpu.op_class_0::FloatSqrt                    0      0.00%     46.37% # Class of committed instruction
system.cpu.op_class_0::SimdAdd                      0      0.00%     46.37% # Class of committed instruction
system.cpu.op_class_0::SimdAddAcc                   0      0.00%     46.37% # Class of committed instruction
system.cpu.op_class_0::SimdAlu                      0      0.00%     46.37% # Class of committed instruction
system.cpu.op_class_0::SimdCmp                      0      0.00%     46.37% # Class of committed instruction
system.cpu.op_class_0::SimdCvt                      0      0.00%     46.37% # Class of committed instruction
system.cpu.op_class_0::SimdMisc                     0      0.00%     46.37% # Class of committed instruction
system.cpu.op_class_0::SimdMult                     0      0.00%     46.37% # Class of committed instruction
system.cpu.op_class_0::SimdMultAcc                  0      0.00%     46.37% # Class of committed instruction
system.cpu.op_class_0::SimdShift                    0      0.00%     46.37% # Class of committed instruction
system.cpu.op_class_0::SimdShiftAcc                 0      0.00%     46.37% # Class of committed instruction
system.cpu.op_class_0::SimdDiv                      0      0.00%     46.37% # Class of committed instruction
system.cpu.op_class_0::SimdSqrt                     0      0.00%     46.37% # Class of committed instruction
system.cpu.op_class_0::SimdFloatAdd                 0      0.00%     46.37% # Class of committed instruction
system.cpu.op_class_0::SimdFloatAlu                 0      0.00%     46.37% # Class of committed instruction
system.cpu.op_class_0::SimdFloatCmp                 0      0.00%     46.37% # Class of committed instruction
system.cpu.op_class_0::SimdFloatCvt                 0      0.00%     46.37% # Class of committed instruction
system.cpu.op_class_0::SimdFloatDiv                 0      0.00%     46.37% # Class of committed instruction
system.cpu.op_class_0::SimdFloatMisc                1      0.00%     46.37% # Class of committed instruction
system.cpu.op_class_0::SimdFloatMult                0      0.00%     46.37% # Class of committed instruction
system.cpu.op_class_0::SimdFloatMultAcc             0      0.00%     46.37% # Class of committed instruction
system.cpu.op_class_0::SimdFloatSqrt                0      0.00%     46.37% # Class of committed instruction
system.cpu.op_class_0::SimdReduceAdd                0      0.00%     46.37% # Class of committed instruction
system.cpu.op_class_0::SimdReduceAlu                0      0.00%     46.37% # Class of committed instruction
system.cpu.op_class_0::SimdReduceCmp                0      0.00%     46.37% # Class of committed instruction
system.cpu.op_class_0::SimdFloatReduceAdd            0      0.00%     46.37% # Class of committed instruction
system.cpu.op_class_0::SimdFloatReduceCmp            0      0.00%     46.37% # Class of committed instruction
system.cpu.op_class_0::SimdAes                      0      0.00%     46.37% # Class of committed instruction
system.cpu.op_class_0::SimdAesMix                   0      0.00%     46.37% # Class of committed instruction
system.cpu.op_class_0::SimdSha1Hash                 0      0.00%     46.37% # Class of committed instruction
system.cpu.op_class_0::SimdSha1Hash2                0      0.00%     46.37% # Class of committed instruction
system.cpu.op_class_0::SimdSha256Hash               0      0.00%     46.37% # Class of committed instruction
system.cpu.op_class_0::SimdSha256Hash2              0      0.00%     46.37% # Class of committed instruction
system.cpu.op_class_0::SimdShaSigma2                0      0.00%     46.37% # Class of committed instruction
system.cpu.op_class_0::SimdShaSigma3                0      0.00%     46.37% # Class of committed instruction
system.cpu.op_class_0::SimdPredAlu                  0      0.00%     46.37% # Class of committed instruction
system.cpu.op_class_0::MemRead               42756988     42.67%     89.04% # Class of committed instruction
system.cpu.op_class_0::MemWrite              10978706     10.96%    100.00% # Class of committed instruction
system.cpu.op_class_0::FloatMemRead                 0      0.00%    100.00% # Class of committed instruction
system.cpu.op_class_0::FloatMemWrite                0      0.00%    100.00% # Class of committed instruction
system.cpu.op_class_0::IprAccess                    0      0.00%    100.00% # Class of committed instruction
system.cpu.op_class_0::InstPrefetch                 0      0.00%    100.00% # Class of committed instruction
system.cpu.op_class_0::total                100199569                       # Class of committed instruction
system.cpu.tickCycles                       133477579                       # Number of cycles that the object actually ticked
system.cpu.workload.numSyscalls                    85                       # Number of system calls
system.membus.snoop_filter.hit_multi_requests            0                       # Number of requests hitting in the snoop filter with multiple (>1) holders of the requested data.
system.membus.snoop_filter.hit_multi_snoops            0                       # Number of snoops hitting in the snoop filter with multiple (>1) holders of the requested data.
system.membus.snoop_filter.hit_single_requests       279139                       # Number of requests hitting in the snoop filter with a single holder of the requested data.
system.membus.snoop_filter.hit_single_snoops            0                       # Number of snoops hitting in the snoop filter with a single holder of the requested data.
system.membus.snoop_filter.tot_requests        566713                       # Total number of requests made to the snoop filter.
system.membus.snoop_filter.tot_snoops               0                       # Total number of snoops made to the snoop filter.
system.tol2bus.snoop_filter.hit_multi_requests         1680                       # Number of requests hitting in the snoop filter with multiple (>1) holders of the requested data.
system.tol2bus.snoop_filter.hit_multi_snoops            1                       # Number of snoops hitting in the snoop filter with multiple (>1) holders of the requested data.
system.tol2bus.snoop_filter.hit_single_requests      1058844                       # Number of requests hitting in the snoop filter with a single holder of the requested data.
system.tol2bus.snoop_filter.hit_single_snoops         3434                       # Number of snoops hitting in the snoop filter with a single holder of the requested data.
system.tol2bus.snoop_filter.tot_requests      2118449                       # Total number of requests made to the snoop filter.
system.tol2bus.snoop_filter.tot_snoops           3435                       # Total number of snoops made to the snoop filter.
system.membus.pwrStateResidencyTicks::UNDEFINED 172792976000                       # Cumulative time (in ticks) in various power states
system.membus.trans_dist::ReadResp             110253                       # Transaction distribution
system.membus.trans_dist::WritebackDirty       199999                       # Transaction distribution
system.membus.trans_dist::CleanEvict            79132                       # Transaction distribution
system.membus.trans_dist::ReadExReq            177329                       # Transaction distribution
system.membus.trans_dist::ReadExResp           177329                       # Transaction distribution
system.membus.trans_dist::ReadSharedReq        110253                       # Transaction distribution
system.membus.pkt_count_system.l2.mem_side::system.mem_ctrls.port       854295                       # Packet count per connected master and slave (bytes)
system.membus.pkt_count::total                 854295                       # Packet count per connected master and slave (bytes)
system.membus.pkt_size_system.l2.mem_side::system.mem_ctrls.port     31205184                       # Cumulative packet size per connected master and slave (bytes)
system.membus.pkt_size::total                31205184                       # Cumulative packet size per connected master and slave (bytes)
system.membus.snoops                                0                       # Total snoops (count)
system.membus.snoopTraffic                          0                       # Total snoop traffic (bytes)
system.membus.snoop_fanout::samples            287582                       # Request fanout histogram
system.membus.snoop_fanout::mean                    0                       # Request fanout histogram
system.membus.snoop_fanout::stdev                   0                       # Request fanout histogram
system.membus.snoop_fanout::underflows              0      0.00%      0.00% # Request fanout histogram
system.membus.snoop_fanout::0                  287582    100.00%    100.00% # Request fanout histogram
system.membus.snoop_fanout::1                       0      0.00%    100.00% # Request fanout histogram
system.membus.snoop_fanout::overflows               0      0.00%    100.00% # Request fanout histogram
system.membus.snoop_fanout::min_value               0                       # Request fanout histogram
system.membus.snoop_fanout::max_value               0                       # Request fanout histogram
system.membus.snoop_fanout::total              287582                       # Request fanout histogram
system.membus.respLayer1.occupancy         1565337500                       # Layer occupancy (ticks)
system.membus.respLayer1.utilization              0.9                       # Layer utilization (%)
system.membus.reqLayer0.occupancy          1366709000                       # Layer occupancy (ticks)
system.membus.reqLayer0.utilization               0.8                       # Layer utilization (%)
system.tol2bus.pwrStateResidencyTicks::UNDEFINED 172792976000                       # Cumulative time (in ticks) in various power states
system.tol2bus.trans_dist::ReadResp            675335                       # Transaction distribution
system.tol2bus.trans_dist::WritebackDirty      1146892                       # Transaction distribution
system.tol2bus.trans_dist::WritebackClean         2337                       # Transaction distribution
system.tol2bus.trans_dist::CleanEvict          191893                       # Transaction distribution
system.tol2bus.trans_dist::ReadExReq           384272                       # Transaction distribution
system.tol2bus.trans_dist::ReadExResp          384272                       # Transaction distribution
system.tol2bus.trans_dist::ReadCleanReq          2590                       # Transaction distribution
system.tol2bus.trans_dist::ReadSharedReq       672745                       # Transaction distribution
system.tol2bus.pkt_count_system.cpu.icache.mem_side::system.l2.cpu_side         7517                       # Packet count per connected master and slave (bytes)
system.tol2bus.pkt_count_system.cpu.dcache.mem_side::system.l2.cpu_side      3170539                       # Packet count per connected master and slave (bytes)
system.tol2bus.pkt_count::total               3178056                       # Packet count per connected master and slave (bytes)
system.tol2bus.pkt_size_system.cpu.icache.mem_side::system.l2.cpu_side       315328                       # Cumulative packet size per connected master and slave (bytes)
system.tol2bus.pkt_size_system.cpu.dcache.mem_side::system.l2.cpu_side    128250240                       # Cumulative packet size per connected master and slave (bytes)
system.tol2bus.pkt_size::total              128565568                       # Cumulative packet size per connected master and slave (bytes)
system.tol2bus.snoops                          282280                       # Total snoops (count)
system.tol2bus.snoopTraffic                  12799936                       # Total snoop traffic (bytes)
system.tol2bus.snoop_fanout::samples          1341887                       # Request fanout histogram
system.tol2bus.snoop_fanout::mean            0.003814                       # Request fanout histogram
system.tol2bus.snoop_fanout::stdev           0.061652                       # Request fanout histogram
system.tol2bus.snoop_fanout::underflows             0      0.00%      0.00% # Request fanout histogram
system.tol2bus.snoop_fanout::0                1336770     99.62%     99.62% # Request fanout histogram
system.tol2bus.snoop_fanout::1                   5116      0.38%    100.00% # Request fanout histogram
system.tol2bus.snoop_fanout::2                      1      0.00%    100.00% # Request fanout histogram
system.tol2bus.snoop_fanout::overflows              0      0.00%    100.00% # Request fanout histogram
system.tol2bus.snoop_fanout::min_value              0                       # Request fanout histogram
system.tol2bus.snoop_fanout::max_value              2                       # Request fanout histogram
system.tol2bus.snoop_fanout::total            1341887                       # Request fanout histogram
system.tol2bus.reqLayer0.occupancy         4016909000                       # Layer occupancy (ticks)
system.tol2bus.reqLayer0.utilization              2.3                       # Layer utilization (%)
system.tol2bus.respLayer1.occupancy        3171060990                       # Layer occupancy (ticks)
system.tol2bus.respLayer1.utilization             1.8                       # Layer utilization (%)
system.tol2bus.respLayer0.occupancy           7770000                       # Layer occupancy (ticks)
system.tol2bus.respLayer0.utilization             0.0                       # Layer utilization (%)
system.voltage_domain.voltage                       1                       # Voltage in Volts
system.clk_domain.clock                          1000                       # Clock period in ticks
system.l2.pwrStateResidencyTicks::UNDEFINED 172792976000                       # Cumulative time (in ticks) in various power states
system.l2.demand_hits::.cpu.inst                 1867                       # number of demand (read+write) hits
system.l2.demand_hits::.cpu.data               770153                       # number of demand (read+write) hits
system.l2.demand_hits::total                   772020                       # number of demand (read+write) hits
system.l2.overall_hits::.cpu.inst                1867                       # number of overall hits
system.l2.overall_hits::.cpu.data              770153                       # number of overall hits
system.l2.overall_hits::total                  772020                       # number of overall hits
system.l2.demand_misses::.cpu.inst                723                       # number of demand (read+write) misses
system.l2.demand_misses::.cpu.data             286864                       # number of demand (read+write) misses
system.l2.demand_misses::total                 287587                       # number of demand (read+write) misses
system.l2.overall_misses::.cpu.inst               723                       # number of overall misses
system.l2.overall_misses::.cpu.data            286864                       # number of overall misses
system.l2.overall_misses::total                287587                       # number of overall misses
system.l2.demand_miss_latency::.cpu.inst     72153000                       # number of demand (read+write) miss cycles
system.l2.demand_miss_latency::.cpu.data  30641983000                       # number of demand (read+write) miss cycles
system.l2.demand_miss_latency::total      30714136000                       # number of demand (read+write) miss cycles
system.l2.overall_miss_latency::.cpu.inst     72153000                       # number of overall miss cycles
system.l2.overall_miss_latency::.cpu.data  30641983000                       # number of overall miss cycles
system.l2.overall_miss_latency::total     30714136000                       # number of overall miss cycles
system.l2.demand_accesses::.cpu.inst             2590                       # number of demand (read+write) accesses
system.l2.demand_accesses::.cpu.data          1057017                       # number of demand (read+write) accesses
system.l2.demand_accesses::total              1059607                       # number of demand (read+write) accesses
system.l2.overall_accesses::.cpu.inst            2590                       # number of overall (read+write) accesses
system.l2.overall_accesses::.cpu.data         1057017                       # number of overall (read+write) accesses
system.l2.overall_accesses::total             1059607                       # number of overall (read+write) accesses
system.l2.demand_miss_rate::.cpu.inst        0.279151                       # miss rate for demand accesses
system.l2.demand_miss_rate::.cpu.data        0.271390                       # miss rate for demand accesses
system.l2.demand_miss_rate::total            0.271409                       # miss rate for demand accesses
system.l2.overall_miss_rate::.cpu.inst       0.279151                       # miss rate for overall accesses
system.l2.overall_miss_rate::.cpu.data       0.271390                       # miss rate for overall accesses
system.l2.overall_miss_rate::total           0.271409                       # miss rate for overall accesses
system.l2.demand_avg_miss_latency::.cpu.inst 99796.680498                       # average overall miss latency
system.l2.demand_avg_miss_latency::.cpu.data 106817.108456                       # average overall miss latency
system.l2.demand_avg_miss_latency::total 106799.458946                       # average overall miss latency
system.l2.overall_avg_miss_latency::.cpu.inst 99796.680498                       # average overall miss latency
system.l2.overall_avg_miss_latency::.cpu.data 106817.108456                       # average overall miss latency
system.l2.overall_avg_miss_latency::total 106799.458946                       # average overall miss latency
system.l2.blocked_cycles::no_mshrs                  0                       # number of cycles access was blocked
system.l2.blocked_cycles::no_targets                0                       # number of cycles access was blocked
system.l2.blocked::no_mshrs                         0                       # number of cycles access was blocked
system.l2.blocked::no_targets                       0                       # number of cycles access was blocked
system.l2.avg_blocked_cycles::no_mshrs            nan                       # average number of cycles each access was blocked
system.l2.avg_blocked_cycles::no_targets          nan                       # average number of cycles each access was blocked
system.l2.writebacks::.writebacks              199999                       # number of writebacks
system.l2.writebacks::total                    199999                       # number of writebacks
system.l2.demand_mshr_hits::.cpu.data               5                       # number of demand (read+write) MSHR hits
system.l2.demand_mshr_hits::total                   5                       # number of demand (read+write) MSHR hits
system.l2.overall_mshr_hits::.cpu.data              5                       # number of overall MSHR hits
system.l2.overall_mshr_hits::total                  5                       # number of overall MSHR hits
system.l2.demand_mshr_misses::.cpu.inst           723                       # number of demand (read+write) MSHR misses
system.l2.demand_mshr_misses::.cpu.data        286859                       # number of demand (read+write) MSHR misses
system.l2.demand_mshr_misses::total            287582                       # number of demand (read+write) MSHR misses
system.l2.overall_mshr_misses::.cpu.inst          723                       # number of overall MSHR misses
system.l2.overall_mshr_misses::.cpu.data       286859                       # number of overall MSHR misses
system.l2.overall_mshr_misses::total           287582                       # number of overall MSHR misses
system.l2.demand_mshr_miss_latency::.cpu.inst     57693000                       # number of demand (read+write) MSHR miss cycles
system.l2.demand_mshr_miss_latency::.cpu.data  24904392000                       # number of demand (read+write) MSHR miss cycles
system.l2.demand_mshr_miss_latency::total  24962085000                       # number of demand (read+write) MSHR miss cycles
system.l2.overall_mshr_miss_latency::.cpu.inst     57693000                       # number of overall MSHR miss cycles
system.l2.overall_mshr_miss_latency::.cpu.data  24904392000                       # number of overall MSHR miss cycles
system.l2.overall_mshr_miss_latency::total  24962085000                       # number of overall MSHR miss cycles
system.l2.demand_mshr_miss_rate::.cpu.inst     0.279151                       # mshr miss rate for demand accesses
system.l2.demand_mshr_miss_rate::.cpu.data     0.271385                       # mshr miss rate for demand accesses
system.l2.demand_mshr_miss_rate::total       0.271404                       # mshr miss rate for demand accesses
system.l2.overall_mshr_miss_rate::.cpu.inst     0.279151                       # mshr miss rate for overall accesses
system.l2.overall_mshr_miss_rate::.cpu.data     0.271385                       # mshr miss rate for overall accesses
system.l2.overall_mshr_miss_rate::total      0.271404                       # mshr miss rate for overall accesses
system.l2.demand_avg_mshr_miss_latency::.cpu.inst 79796.680498                       # average overall mshr miss latency
system.l2.demand_avg_mshr_miss_latency::.cpu.data 86817.537536                       # average overall mshr miss latency
system.l2.demand_avg_mshr_miss_latency::total 86799.886641                       # average overall mshr miss latency
system.l2.overall_avg_mshr_miss_latency::.cpu.inst 79796.680498                       # average overall mshr miss latency
system.l2.overall_avg_mshr_miss_latency::.cpu.data 86817.537536                       # average overall mshr miss latency
system.l2.overall_avg_mshr_miss_latency::total 86799.886641                       # average overall mshr miss latency
system.l2.replacements                         282280                       # number of replacements
system.l2.WritebackDirty_hits::.writebacks       946893                       # number of WritebackDirty hits
system.l2.WritebackDirty_hits::total           946893                       # number of WritebackDirty hits
system.l2.WritebackDirty_accesses::.writebacks       946893                       # number of WritebackDirty accesses(hits+misses)
system.l2.WritebackDirty_accesses::total       946893                       # number of WritebackDirty accesses(hits+misses)
system.l2.WritebackClean_hits::.writebacks         2312                       # number of WritebackClean hits
system.l2.WritebackClean_hits::total             2312                       # number of WritebackClean hits
system.l2.WritebackClean_accesses::.writebacks         2312                       # number of WritebackClean accesses(hits+misses)
system.l2.WritebackClean_accesses::total         2312                       # number of WritebackClean accesses(hits+misses)
system.l2.CleanEvict_mshr_misses::.writebacks          286                       # number of CleanEvict MSHR misses
system.l2.CleanEvict_mshr_misses::total           286                       # number of CleanEvict MSHR misses
system.l2.CleanEvict_mshr_miss_rate::.writebacks          inf                       # mshr miss rate for CleanEvict accesses
system.l2.CleanEvict_mshr_miss_rate::total          inf                       # mshr miss rate for CleanEvict accesses
system.l2.ReadExReq_hits::.cpu.data            206943                       # number of ReadExReq hits
system.l2.ReadExReq_hits::total                206943                       # number of ReadExReq hits
system.l2.ReadExReq_misses::.cpu.data          177329                       # number of ReadExReq misses
system.l2.ReadExReq_misses::total              177329                       # number of ReadExReq misses
system.l2.ReadExReq_miss_latency::.cpu.data  19334779000                       # number of ReadExReq miss cycles
system.l2.ReadExReq_miss_latency::total   19334779000                       # number of ReadExReq miss cycles
system.l2.ReadExReq_accesses::.cpu.data        384272                       # number of ReadExReq accesses(hits+misses)
system.l2.ReadExReq_accesses::total            384272                       # number of ReadExReq accesses(hits+misses)
system.l2.ReadExReq_miss_rate::.cpu.data     0.461467                       # miss rate for ReadExReq accesses
system.l2.ReadExReq_miss_rate::total         0.461467                       # miss rate for ReadExReq accesses
system.l2.ReadExReq_avg_miss_latency::.cpu.data 109033.372996                       # average ReadExReq miss latency
system.l2.ReadExReq_avg_miss_latency::total 109033.372996                       # average ReadExReq miss latency
system.l2.ReadExReq_mshr_misses::.cpu.data       177329                       # number of ReadExReq MSHR misses
system.l2.ReadExReq_mshr_misses::total         177329                       # number of ReadExReq MSHR misses
system.l2.ReadExReq_mshr_miss_latency::.cpu.data  15788199000                       # number of ReadExReq MSHR miss cycles
system.l2.ReadExReq_mshr_miss_latency::total  15788199000                       # number of ReadExReq MSHR miss cycles
system.l2.ReadExReq_mshr_miss_rate::.cpu.data     0.461467                       # mshr miss rate for ReadExReq accesses
system.l2.ReadExReq_mshr_miss_rate::total     0.461467                       # mshr miss rate for ReadExReq accesses
system.l2.ReadExReq_avg_mshr_miss_latency::.cpu.data 89033.372996                       # average ReadExReq mshr miss latency
system.l2.ReadExReq_avg_mshr_miss_latency::total 89033.372996                       # average ReadExReq mshr miss latency
system.l2.ReadCleanReq_hits::.cpu.inst           1867                       # number of ReadCleanReq hits
system.l2.ReadCleanReq_hits::total               1867                       # number of ReadCleanReq hits
system.l2.ReadCleanReq_misses::.cpu.inst          723                       # number of ReadCleanReq misses
system.l2.ReadCleanReq_misses::total              723                       # number of ReadCleanReq misses
system.l2.ReadCleanReq_miss_latency::.cpu.inst     72153000                       # number of ReadCleanReq miss cycles
system.l2.ReadCleanReq_miss_latency::total     72153000                       # number of ReadCleanReq miss cycles
system.l2.ReadCleanReq_accesses::.cpu.inst         2590                       # number of ReadCleanReq accesses(hits+misses)
system.l2.ReadCleanReq_accesses::total           2590                       # number of ReadCleanReq accesses(hits+misses)
system.l2.ReadCleanReq_miss_rate::.cpu.inst     0.279151                       # miss rate for ReadCleanReq accesses
system.l2.ReadCleanReq_miss_rate::total      0.279151                       # miss rate for ReadCleanReq accesses
system.l2.ReadCleanReq_avg_miss_latency::.cpu.inst 99796.680498                       # average ReadCleanReq miss latency
system.l2.ReadCleanReq_avg_miss_latency::total 99796.680498                       # average ReadCleanReq miss latency
system.l2.ReadCleanReq_mshr_misses::.cpu.inst          723                       # number of ReadCleanReq MSHR misses
system.l2.ReadCleanReq_mshr_misses::total          723                       # number of ReadCleanReq MSHR misses
system.l2.ReadCleanReq_mshr_miss_latency::.cpu.inst     57693000                       # number of ReadCleanReq MSHR miss cycles
system.l2.ReadCleanReq_mshr_miss_latency::total     57693000                       # number of ReadCleanReq MSHR miss cycles
system.l2.ReadCleanReq_mshr_miss_rate::.cpu.inst     0.279151                       # mshr miss rate for ReadCleanReq accesses
system.l2.ReadCleanReq_mshr_miss_rate::total     0.279151                       # mshr miss rate for ReadCleanReq accesses
system.l2.ReadCleanReq_avg_mshr_miss_latency::.cpu.inst 79796.680498                       # average ReadCleanReq mshr miss latency
system.l2.ReadCleanReq_avg_mshr_miss_latency::total 79796.680498                       # average ReadCleanReq mshr miss latency
system.l2.ReadSharedReq_hits::.cpu.data        563210                       # number of ReadSharedReq hits
system.l2.ReadSharedReq_hits::total            563210                       # number of ReadSharedReq hits
system.l2.ReadSharedReq_misses::.cpu.data       109535                       # number of ReadSharedReq misses
system.l2.ReadSharedReq_misses::total          109535                       # number of ReadSharedReq misses
system.l2.ReadSharedReq_miss_latency::.cpu.data  11307204000                       # number of ReadSharedReq miss cycles
system.l2.ReadSharedReq_miss_latency::total  11307204000                       # number of ReadSharedReq miss cycles
system.l2.ReadSharedReq_accesses::.cpu.data       672745                       # number of ReadSharedReq accesses(hits+misses)
system.l2.ReadSharedReq_accesses::total        672745                       # number of ReadSharedReq accesses(hits+misses)
system.l2.ReadSharedReq_miss_rate::.cpu.data     0.162818                       # miss rate for ReadSharedReq accesses
system.l2.ReadSharedReq_miss_rate::total     0.162818                       # miss rate for ReadSharedReq accesses
system.l2.ReadSharedReq_avg_miss_latency::.cpu.data 103229.141370                       # average ReadSharedReq miss latency
system.l2.ReadSharedReq_avg_miss_latency::total 103229.141370                       # average ReadSharedReq miss latency
system.l2.ReadSharedReq_mshr_hits::.cpu.data            5                       # number of ReadSharedReq MSHR hits
system.l2.ReadSharedReq_mshr_hits::total            5                       # number of ReadSharedReq MSHR hits
system.l2.ReadSharedReq_mshr_misses::.cpu.data       109530                       # number of ReadSharedReq MSHR misses
system.l2.ReadSharedReq_mshr_misses::total       109530                       # number of ReadSharedReq MSHR misses
system.l2.ReadSharedReq_mshr_miss_latency::.cpu.data   9116193000                       # number of ReadSharedReq MSHR miss cycles
system.l2.ReadSharedReq_mshr_miss_latency::total   9116193000                       # number of ReadSharedReq MSHR miss cycles
system.l2.ReadSharedReq_mshr_miss_rate::.cpu.data     0.162811                       # mshr miss rate for ReadSharedReq accesses
system.l2.ReadSharedReq_mshr_miss_rate::total     0.162811                       # mshr miss rate for ReadSharedReq accesses
system.l2.ReadSharedReq_avg_mshr_miss_latency::.cpu.data 83230.101342                       # average ReadSharedReq mshr miss latency
system.l2.ReadSharedReq_avg_mshr_miss_latency::total 83230.101342                       # average ReadSharedReq mshr miss latency
system.l2.tags.pwrStateResidencyTicks::UNDEFINED 172792976000                       # Cumulative time (in ticks) in various power states
system.l2.tags.tagsinuse                  8089.761660                       # Cycle average of tags in use
system.l2.tags.total_refs                     2116478                       # Total number of references to valid blocks.
system.l2.tags.sampled_refs                    290472                       # Sample count of references to valid blocks.
system.l2.tags.avg_refs                      7.286341                       # Average number of references to valid blocks.
system.l2.tags.warmup_cycle                     87000                       # Cycle when the warmup percentage was hit.
system.l2.tags.occ_blocks::.writebacks      50.353793                       # Average occupied blocks per requestor
system.l2.tags.occ_blocks::.cpu.inst        34.142165                       # Average occupied blocks per requestor
system.l2.tags.occ_blocks::.cpu.data      8005.265702                       # Average occupied blocks per requestor
system.l2.tags.occ_percent::.writebacks      0.006147                       # Average percentage of cache occupancy
system.l2.tags.occ_percent::.cpu.inst        0.004168                       # Average percentage of cache occupancy
system.l2.tags.occ_percent::.cpu.data        0.977205                       # Average percentage of cache occupancy
system.l2.tags.occ_percent::total            0.987520                       # Average percentage of cache occupancy
system.l2.tags.occ_task_id_blocks::1024          8192                       # Occupied blocks per task id
system.l2.tags.age_task_id_blocks_1024::0           32                       # Occupied blocks per task id
system.l2.tags.age_task_id_blocks_1024::1          449                       # Occupied blocks per task id
system.l2.tags.age_task_id_blocks_1024::2         1939                       # Occupied blocks per task id
system.l2.tags.age_task_id_blocks_1024::3         5138                       # Occupied blocks per task id
system.l2.tags.age_task_id_blocks_1024::4          634                       # Occupied blocks per task id
system.l2.tags.occ_task_id_percent::1024            1                       # Percentage of cache occupancy per task id
system.l2.tags.tag_accesses                   4524010                       # Number of tag accesses
system.l2.tags.data_accesses                  4524010                       # Number of data accesses
system.cpu_voltage_domain.voltage                   1                       # Voltage in Volts
system.mem_ctrls.pwrStateResidencyTicks::UNDEFINED 172792976000                       # Cumulative time (in ticks) in various power states
system.mem_ctrls.bytes_read::.cpu.inst          46272                       # Number of bytes read from this memory
system.mem_ctrls.bytes_read::.cpu.data       18358976                       # Number of bytes read from this memory
system.mem_ctrls.bytes_read::total           18405248                       # Number of bytes read from this memory
system.mem_ctrls.bytes_inst_read::.cpu.inst        46272                       # Number of instructions bytes read from this memory
system.mem_ctrls.bytes_inst_read::total         46272                       # Number of instructions bytes read from this memory
system.mem_ctrls.bytes_written::.writebacks     12799936                       # Number of bytes written to this memory
system.mem_ctrls.bytes_written::total        12799936                       # Number of bytes written to this memory
system.mem_ctrls.num_reads::.cpu.inst             723                       # Number of read requests responded to by this memory
system.mem_ctrls.num_reads::.cpu.data          286859                       # Number of read requests responded to by this memory
system.mem_ctrls.num_reads::total              287582                       # Number of read requests responded to by this memory
system.mem_ctrls.num_writes::.writebacks       199999                       # Number of write requests responded to by this memory
system.mem_ctrls.num_writes::total             199999                       # Number of write requests responded to by this memory
system.mem_ctrls.bw_read::.cpu.inst            267789                       # Total read bandwidth from this memory (bytes/s)
system.mem_ctrls.bw_read::.cpu.data         106248393                       # Total read bandwidth from this memory (bytes/s)
system.mem_ctrls.bw_read::total             106516182                       # Total read bandwidth from this memory (bytes/s)
system.mem_ctrls.bw_inst_read::.cpu.inst       267789                       # Instruction read bandwidth from this memory (bytes/s)
system.mem_ctrls.bw_inst_read::total           267789                       # Instruction read bandwidth from this memory (bytes/s)
system.mem_ctrls.bw_write::.writebacks       74076715                       # Write bandwidth from this memory (bytes/s)
system.mem_ctrls.bw_write::total             74076715                       # Write bandwidth from this memory (bytes/s)
system.mem_ctrls.bw_total::.writebacks       74076715                       # Total bandwidth to/from this memory (bytes/s)
system.mem_ctrls.bw_total::.cpu.inst           267789                       # Total bandwidth to/from this memory (bytes/s)
system.mem_ctrls.bw_total::.cpu.data        106248393                       # Total bandwidth to/from this memory (bytes/s)
system.mem_ctrls.bw_total::total            180592896                       # Total bandwidth to/from this memory (bytes/s)
system.mem_ctrls.avgPriority_.writebacks::samples    199966.00                       # Average QoS priority value for accepted requests
system.mem_ctrls.avgPriority_.cpu.inst::samples       723.00                       # Average QoS priority value for accepted requests
system.mem_ctrls.avgPriority_.cpu.data::samples    285897.00                       # Average QoS priority value for accepted requests
system.mem_ctrls.priorityMinLatency      0.000000018750                       # per QoS priority minimum request to response latency (s)
system.mem_ctrls.priorityMaxLatency      0.007433940500                       # per QoS priority maximum request to response latency (s)
system.mem_ctrls.numReadWriteTurnArounds        11704                       # Number of turnarounds from READ to WRITE
system.mem_ctrls.numWriteReadTurnArounds        11704                       # Number of turnarounds from WRITE to READ
system.mem_ctrls.numStayReadState              805009                       # Number of times bus staying in READ state
system.mem_ctrls.numStayWriteState             188540                       # Number of times bus staying in WRITE state
system.mem_ctrls.readReqs                      287582                       # Number of read requests accepted
system.mem_ctrls.writeReqs                     199999                       # Number of write requests accepted
system.mem_ctrls.readBursts                    287582                       # Number of DRAM read bursts, including those serviced by the write queue
system.mem_ctrls.writeBursts                   199999                       # Number of DRAM write bursts, including those merged in the write queue
system.mem_ctrls.servicedByWrQ                    962                       # Number of DRAM read bursts serviced by the write queue
system.mem_ctrls.mergedWrBursts                    33                       # Number of DRAM write bursts merged with an existing one
system.mem_ctrls.neitherReadNorWriteReqs            0                       # Number of requests that are neither read nor write
system.mem_ctrls.perBankRdBursts::0             17717                       # Per bank write bursts
system.mem_ctrls.perBankRdBursts::1             18865                       # Per bank write bursts
system.mem_ctrls.perBankRdBursts::2             18478                       # Per bank write bursts
system.mem_ctrls.perBankRdBursts::3             19640                       # Per bank write bursts
system.mem_ctrls.perBankRdBursts::4             16945                       # Per bank write bursts
system.mem_ctrls.perBankRdBursts::5             17839                       # Per bank write bursts
system.mem_ctrls.perBankRdBursts::6             17797                       # Per bank write bursts
system.mem_ctrls.perBankRdBursts::7             18037                       # Per bank write bursts
system.mem_ctrls.perBankRdBursts::8             17322                       # Per bank write bursts
system.mem_ctrls.perBankRdBursts::9             16401                       # Per bank write bursts
system.mem_ctrls.perBankRdBursts::10            17045                       # Per bank write bursts
system.mem_ctrls.perBankRdBursts::11            18458                       # Per bank write bursts
system.mem_ctrls.perBankRdBursts::12            17520                       # Per bank write bursts
system.mem_ctrls.perBankRdBursts::13            18047                       # Per bank write bursts
system.mem_ctrls.perBankRdBursts::14            17920                       # Per bank write bursts
system.mem_ctrls.perBankRdBursts::15            18589                       # Per bank write bursts
system.mem_ctrls.perBankWrBursts::0             12077                       # Per bank write bursts
system.mem_ctrls.perBankWrBursts::1             13271                       # Per bank write bursts
system.mem_ctrls.perBankWrBursts::2             13152                       # Per bank write bursts
system.mem_ctrls.perBankWrBursts::3             14445                       # Per bank write bursts
system.mem_ctrls.perBankWrBursts::4             11641                       # Per bank write bursts
system.mem_ctrls.perBankWrBursts::5             12387                       # Per bank write bursts
system.mem_ctrls.perBankWrBursts::6             12303                       # Per bank write bursts
system.mem_ctrls.perBankWrBursts::7             12646                       # Per bank write bursts
system.mem_ctrls.perBankWrBursts::8             12006                       # Per bank write bursts
system.mem_ctrls.perBankWrBursts::9             11198                       # Per bank write bursts
system.mem_ctrls.perBankWrBursts::10            11886                       # Per bank write bursts
system.mem_ctrls.perBankWrBursts::11            12796                       # Per bank write bursts
system.mem_ctrls.perBankWrBursts::12            11964                       # Per bank write bursts
system.mem_ctrls.perBankWrBursts::13            12571                       # Per bank write bursts
system.mem_ctrls.perBankWrBursts::14            12375                       # Per bank write bursts
system.mem_ctrls.perBankWrBursts::15            13224                       # Per bank write bursts
system.mem_ctrls.avgRdQLen                       1.05                       # Average read queue length when enqueuing
system.mem_ctrls.avgWrQLen                      24.87                       # Average write queue length when enqueuing
system.mem_ctrls.totQLat                   4790133500                       # Total ticks spent queuing
system.mem_ctrls.totBusLat                 1433100000                       # Total ticks spent in databus transfers
system.mem_ctrls.totMemAccLat             10164258500                       # Total ticks spent from burst creation until serviced by the DRAM
system.mem_ctrls.avgQLat                     16712.49                       # Average queueing delay per DRAM burst
system.mem_ctrls.avgBusLat                    5000.00                       # Average bus latency per DRAM burst
system.mem_ctrls.avgMemAccLat                35462.49                       # Average memory access latency per DRAM burst
system.mem_ctrls.numRdRetry                         0                       # Number of times read queue was full causing retry
system.mem_ctrls.numWrRetry                         0                       # Number of times write queue was full causing retry
system.mem_ctrls.readRowHits                   145092                       # Number of row buffer hits during reads
system.mem_ctrls.writeRowHits                  102012                       # Number of row buffer hits during writes
system.mem_ctrls.readRowHitRate                 50.62                       # Row buffer hit rate for reads
system.mem_ctrls.writeRowHitRate                51.01                       # Row buffer hit rate for writes
system.mem_ctrls.readPktSize::0                     0                       # Read request sizes (log2)
system.mem_ctrls.readPktSize::1                     0                       # Read request sizes (log2)
system.mem_ctrls.readPktSize::2                     0                       # Read request sizes (log2)
system.mem_ctrls.readPktSize::3                     0                       # Read request sizes (log2)
system.mem_ctrls.readPktSize::4                     0                       # Read request sizes (log2)
system.mem_ctrls.readPktSize::5                     0                       # Read request sizes (log2)
system.mem_ctrls.readPktSize::6                287582                       # Read request sizes (log2)
system.mem_ctrls.writePktSize::0                    0                       # Write request sizes (log2)
system.mem_ctrls.writePktSize::1                    0                       # Write request sizes (log2)
system.mem_ctrls.writePktSize::2                    0                       # Write request sizes (log2)
system.mem_ctrls.writePktSize::3                    0                       # Write request sizes (log2)
system.mem_ctrls.writePktSize::4                    0                       # Write request sizes (log2)
system.mem_ctrls.writePktSize::5                    0                       # Write request sizes (log2)
system.mem_ctrls.writePktSize::6               199999                       # Write request sizes (log2)
system.mem_ctrls.rdQLenPdf::0                  233727                       # What read queue length does an incoming req see
system.mem_ctrls.rdQLenPdf::1                   52662                       # What read queue length does an incoming req see
system.mem_ctrls.rdQLenPdf::2                     134                       # What read queue length does an incoming req see
system.mem_ctrls.rdQLenPdf::3                      96                       # What read queue length does an incoming req see
system.mem_ctrls.rdQLenPdf::4                       1                       # What read queue length does an incoming req see
system.mem_ctrls.rdQLenPdf::5                       0                       # What read queue length does an incoming req see
system.mem_ctrls.rdQLenPdf::6                       0                       # What read queue length does an incoming req see
system.mem_ctrls.rdQLenPdf::7                       0                       # What read queue length does an incoming req see
system.mem_ctrls.rdQLenPdf::8                       0                       # What read queue length does an incoming req see
system.mem_ctrls.rdQLenPdf::9                       0                       # What read queue length does an incoming req see
system.mem_ctrls.rdQLenPdf::10                      0                       # What read queue length does an incoming req see
system.mem_ctrls.rdQLenPdf::11                      0                       # What read queue length does an incoming req see
system.mem_ctrls.rdQLenPdf::12                      0                       # What read queue length does an incoming req see
system.mem_ctrls.rdQLenPdf::13                      0                       # What read queue length does an incoming req see
system.mem_ctrls.rdQLenPdf::14                      0                       # What read queue length does an incoming req see
system.mem_ctrls.rdQLenPdf::15                      0                       # What read queue length does an incoming req see
system.mem_ctrls.rdQLenPdf::16                      0                       # What read queue length does an incoming req see
system.mem_ctrls.rdQLenPdf::17                      0                       # What read queue length does an incoming req see
system.mem_ctrls.rdQLenPdf::18                      0                       # What read queue length does an incoming req see
system.mem_ctrls.rdQLenPdf::19                      0                       # What read queue length does an incoming req see
system.mem_ctrls.rdQLenPdf::20                      0                       # What read queue length does an incoming req see
system.mem_ctrls.rdQLenPdf::21                      0                       # What read queue length does an incoming req see
system.mem_ctrls.rdQLenPdf::22                      0                       # What read queue length does an incoming req see
system.mem_ctrls.rdQLenPdf::23                      0                       # What read queue length does an incoming req see
system.mem_ctrls.rdQLenPdf::24                      0                       # What read queue length does an incoming req see
system.mem_ctrls.rdQLenPdf::25                      0                       # What read queue length does an incoming req see
system.mem_ctrls.rdQLenPdf::26                      0                       # What read queue length does an incoming req see
system.mem_ctrls.rdQLenPdf::27                      0                       # What read queue length does an incoming req see
system.mem_ctrls.rdQLenPdf::28                      0                       # What read queue length does an incoming req see
system.mem_ctrls.rdQLenPdf::29                      0                       # What read queue length does an incoming req see
system.mem_ctrls.rdQLenPdf::30                      0                       # What read queue length does an incoming req see
system.mem_ctrls.rdQLenPdf::31                      0                       # What read queue length does an incoming req see
system.mem_ctrls.wrQLenPdf::0                       1                       # What write queue length does an incoming req see
system.mem_ctrls.wrQLenPdf::1                       1                       # What write queue length does an incoming req see
system.mem_ctrls.wrQLenPdf::2                       1                       # What write queue length does an incoming req see
system.mem_ctrls.wrQLenPdf::3                       1                       # What write queue length does an incoming req see
system.mem_ctrls.wrQLenPdf::4                       1                       # What write queue length does an incoming req see
system.mem_ctrls.wrQLenPdf::5                       1                       # What write queue length does an incoming req see
system.mem_ctrls.wrQLenPdf::6                       1                       # What write queue length does an incoming req see
system.mem_ctrls.wrQLenPdf::7                       1                       # What write queue length does an incoming req see
system.mem_ctrls.wrQLenPdf::8                       1                       # What write queue length does an incoming req see
system.mem_ctrls.wrQLenPdf::9                       1                       # What write queue length does an incoming req see
system.mem_ctrls.wrQLenPdf::10                      1                       # What write queue length does an incoming req see
system.mem_ctrls.wrQLenPdf::11                      1                       # What write queue length does an incoming req see
system.mem_ctrls.wrQLenPdf::12                      1                       # What write queue length does an incoming req see
system.mem_ctrls.wrQLenPdf::13                      1                       # What write queue length does an incoming req see
system.mem_ctrls.wrQLenPdf::14                      1                       # What write queue length does an incoming req see
system.mem_ctrls.wrQLenPdf::15                   5831                       # What write queue length does an incoming req see
system.mem_ctrls.wrQLenPdf::16                   6174                       # What write queue length does an incoming req see
system.mem_ctrls.wrQLenPdf::17                  11336                       # What write queue length does an incoming req see
system.mem_ctrls.wrQLenPdf::18                  11795                       # What write queue length does an incoming req see
system.mem_ctrls.wrQLenPdf::19                  11789                       # What write queue length does an incoming req see
system.mem_ctrls.wrQLenPdf::20                  11778                       # What write queue length does an incoming req see
system.mem_ctrls.wrQLenPdf::21                  11868                       # What write queue length does an incoming req see
system.mem_ctrls.wrQLenPdf::22                  11810                       # What write queue length does an incoming req see
system.mem_ctrls.wrQLenPdf::23                  11817                       # What write queue length does an incoming req see
system.mem_ctrls.wrQLenPdf::24                  11805                       # What write queue length does an incoming req see
system.mem_ctrls.wrQLenPdf::25                  11761                       # What write queue length does an incoming req see
system.mem_ctrls.wrQLenPdf::26                  11763                       # What write queue length does an incoming req see
system.mem_ctrls.wrQLenPdf::27                  11744                       # What write queue length does an incoming req see
system.mem_ctrls.wrQLenPdf::28                  11751                       # What write queue length does an incoming req see
system.mem_ctrls.wrQLenPdf::29                  11755                       # What write queue length does an incoming req see
system.mem_ctrls.wrQLenPdf::30                  11712                       # What write queue length does an incoming req see
system.mem_ctrls.wrQLenPdf::31                  11753                       # What write queue length does an incoming req see
system.mem_ctrls.wrQLenPdf::32                  11704                       # What write queue length does an incoming req see
system.mem_ctrls.wrQLenPdf::33                      5                       # What write queue length does an incoming req see
system.mem_ctrls.wrQLenPdf::34                      0                       # What write queue length does an incoming req see
system.mem_ctrls.wrQLenPdf::35                      0                       # What write queue length does an incoming req see
system.mem_ctrls.wrQLenPdf::36                      0                       # What write queue length does an incoming req see
system.mem_ctrls.wrQLenPdf::37                      0                       # What write queue length does an incoming req see
system.mem_ctrls.wrQLenPdf::38                      0                       # What write queue length does an incoming req see
system.mem_ctrls.wrQLenPdf::39                      0                       # What write queue length does an incoming req see
system.mem_ctrls.wrQLenPdf::40                      0                       # What write queue length does an incoming req see
system.mem_ctrls.wrQLenPdf::41                      0                       # What write queue length does an incoming req see
system.mem_ctrls.wrQLenPdf::42                      0                       # What write queue length does an incoming req see
system.mem_ctrls.wrQLenPdf::43                      0                       # What write queue length does an incoming req see
system.mem_ctrls.wrQLenPdf::44                      0                       # What write queue length does an incoming req see
system.mem_ctrls.wrQLenPdf::45                      0                       # What write queue length does an incoming req see
system.mem_ctrls.wrQLenPdf::46                      0                       # What write queue length does an incoming req see
system.mem_ctrls.wrQLenPdf::47                      0                       # What write queue length does an incoming req see
system.mem_ctrls.wrQLenPdf::48                      0                       # What write queue length does an incoming req see
system.mem_ctrls.wrQLenPdf::49                      0                       # What write queue length does an incoming req see
system.mem_ctrls.wrQLenPdf::50                      0                       # What write queue length does an incoming req see
system.mem_ctrls.wrQLenPdf::51                      0                       # What write queue length does an incoming req see
system.mem_ctrls.wrQLenPdf::52                      0                       # What write queue length does an incoming req see
system.mem_ctrls.wrQLenPdf::53                      0                       # What write queue length does an incoming req see
system.mem_ctrls.wrQLenPdf::54                      0                       # What write queue length does an incoming req see
system.mem_ctrls.wrQLenPdf::55                      0                       # What write queue length does an incoming req see
system.mem_ctrls.wrQLenPdf::56                      0                       # What write queue length does an incoming req see
system.mem_ctrls.wrQLenPdf::57                      0                       # What write queue length does an incoming req see
system.mem_ctrls.wrQLenPdf::58                      0                       # What write queue length does an incoming req see
system.mem_ctrls.wrQLenPdf::59                      0                       # What write queue length does an incoming req see
system.mem_ctrls.wrQLenPdf::60                      0                       # What write queue length does an incoming req see
system.mem_ctrls.wrQLenPdf::61                      0                       # What write queue length does an incoming req see
system.mem_ctrls.wrQLenPdf::62                      0                       # What write queue length does an incoming req see
system.mem_ctrls.wrQLenPdf::63                      0                       # What write queue length does an incoming req see
system.mem_ctrls.bytesPerActivate::samples       239456                       # Bytes accessed per row activation
system.mem_ctrls.bytesPerActivate::mean    130.044100                       # Bytes accessed per row activation
system.mem_ctrls.bytesPerActivate::gmean    88.025834                       # Bytes accessed per row activation
system.mem_ctrls.bytesPerActivate::stdev   188.108742                       # Bytes accessed per row activation
system.mem_ctrls.bytesPerActivate::0-127       184669     77.12%     77.12% # Bytes accessed per row activation
system.mem_ctrls.bytesPerActivate::128-255        29635     12.38%     89.50% # Bytes accessed per row activation
system.mem_ctrls.bytesPerActivate::256-383         5855      2.45%     91.94% # Bytes accessed per row activation
system.mem_ctrls.bytesPerActivate::384-511         1769      0.74%     92.68% # Bytes accessed per row activation
system.mem_ctrls.bytesPerActivate::512-639         9218      3.85%     96.53% # Bytes accessed per row activation
system.mem_ctrls.bytesPerActivate::640-767          680      0.28%     96.81% # Bytes accessed per row activation
system.mem_ctrls.bytesPerActivate::768-895          601      0.25%     97.06% # Bytes accessed per row activation
system.mem_ctrls.bytesPerActivate::896-1023          547      0.23%     97.29% # Bytes accessed per row activation
system.mem_ctrls.bytesPerActivate::1024-1151         6482      2.71%    100.00% # Bytes accessed per row activation
system.mem_ctrls.bytesPerActivate::total       239456                       # Bytes accessed per row activation
system.mem_ctrls.rdPerTurnAround::samples        11704                       # Reads before turning the bus around for writes
system.mem_ctrls.rdPerTurnAround::mean      24.488124                       # Reads before turning the bus around for writes
system.mem_ctrls.rdPerTurnAround::gmean     22.100120                       # Reads before turning the bus around for writes
system.mem_ctrls.rdPerTurnAround::stdev     24.432523                       # Reads before turning the bus around for writes
system.mem_ctrls.rdPerTurnAround::0-63          11498     98.24%     98.24% # Reads before turning the bus around for writes
system.mem_ctrls.rdPerTurnAround::64-127          135      1.15%     99.39% # Reads before turning the bus around for writes
system.mem_ctrls.rdPerTurnAround::128-191           33      0.28%     99.68% # Reads before turning the bus around for writes
system.mem_ctrls.rdPerTurnAround::192-255            6      0.05%     99.73% # Reads before turning the bus around for writes
system.mem_ctrls.rdPerTurnAround::256-319           24      0.21%     99.93% # Reads before turning the bus around for writes
[...]
system.cpu.icache.tags.occ_percent::.cpu.inst     0.838611                       # Average percentage of cache occupancy
system.cpu.icache.tags.occ_percent::total     0.838611                       # Average percentage of cache occupancy
system.cpu.icache.tags.occ_task_id_blocks::1024          253                       # Occupied blocks per task id
system.cpu.icache.tags.age_task_id_blocks_1024::4          253                       # Occupied blocks per task id
system.cpu.icache.tags.occ_task_id_percent::1024     0.988281                       # Percentage of cache occupancy per task id
system.cpu.icache.tags.tag_accesses          10201342                       # Number of tag accesses
system.cpu.icache.tags.data_accesses         10201342                       # Number of data accesses
system.cpu.dtb.walker.pwrStateResidencyTicks::UNDEFINED 172792976000                       # Cumulative time (in ticks) in various power states
system.cpu.dtb.stage2_mmu.stage2_tlb.walker.pwrStateResidencyTicks::UNDEFINED 172792976000                       # Cumulative time (in ticks) in various power states
system.cpu.dcache.pwrStateResidencyTicks::UNDEFINED 172792976000                       # Cumulative time (in ticks) in various power states
system.cpu.dcache.demand_hits::.cpu.data     51059750                       # number of demand (read+write) hits
system.cpu.dcache.demand_hits::total         51059750                       # number of demand (read+write) hits
system.cpu.dcache.overall_hits::.cpu.data     51060160                       # number of overall hits
system.cpu.dcache.overall_hits::total        51060160                       # number of overall hits
system.cpu.dcache.demand_misses::.cpu.data      1108337                       # number of demand (read+write) misses
system.cpu.dcache.demand_misses::total        1108337                       # number of demand (read+write) misses
system.cpu.dcache.overall_misses::.cpu.data      1116343                       # number of overall misses
system.cpu.dcache.overall_misses::total       1116343                       # number of overall misses
system.cpu.dcache.demand_miss_latency::.cpu.data  53647816999                       # number of demand (read+write) miss cycles
system.cpu.dcache.demand_miss_latency::total  53647816999                       # number of demand (read+write) miss cycles
system.cpu.dcache.overall_miss_latency::.cpu.data  53647816999                       # number of overall miss cycles
system.cpu.dcache.overall_miss_latency::total  53647816999                       # number of overall miss cycles
system.cpu.dcache.demand_accesses::.cpu.data     52168087                       # number of demand (read+write) accesses
system.cpu.dcache.demand_accesses::total     52168087                       # number of demand (read+write) accesses
system.cpu.dcache.overall_accesses::.cpu.data     52176503                       # number of overall (read+write) accesses
system.cpu.dcache.overall_accesses::total     52176503                       # number of overall (read+write) accesses
system.cpu.dcache.demand_miss_rate::.cpu.data     0.021245                       # miss rate for demand accesses
system.cpu.dcache.demand_miss_rate::total     0.021245                       # miss rate for demand accesses
system.cpu.dcache.overall_miss_rate::.cpu.data     0.021396                       # miss rate for overall accesses
system.cpu.dcache.overall_miss_rate::total     0.021396                       # miss rate for overall accesses
system.cpu.dcache.demand_avg_miss_latency::.cpu.data 48403.885279                       # average overall miss latency
system.cpu.dcache.demand_avg_miss_latency::total 48403.885279                       # average overall miss latency
system.cpu.dcache.overall_avg_miss_latency::.cpu.data 48056.750478                       # average overall miss latency
system.cpu.dcache.overall_avg_miss_latency::total 48056.750478                       # average overall miss latency
system.cpu.dcache.blocked_cycles::no_mshrs        87589                       # number of cycles access was blocked
system.cpu.dcache.blocked_cycles::no_targets            0                       # number of cycles access was blocked
system.cpu.dcache.blocked::no_mshrs              3508                       # number of cycles access was blocked
system.cpu.dcache.blocked::no_targets               0                       # number of cycles access was blocked
system.cpu.dcache.avg_blocked_cycles::no_mshrs    24.968358                       # average number of cycles each access was blocked
system.cpu.dcache.avg_blocked_cycles::no_targets          nan                       # average number of cycles each access was blocked
system.cpu.dcache.writebacks::.writebacks       946893                       # number of writebacks
system.cpu.dcache.writebacks::total            946893                       # number of writebacks
system.cpu.dcache.demand_mshr_hits::.cpu.data        59325                       # number of demand (read+write) MSHR hits
system.cpu.dcache.demand_mshr_hits::total        59325                       # number of demand (read+write) MSHR hits
system.cpu.dcache.overall_mshr_hits::.cpu.data        59325                       # number of overall MSHR hits
system.cpu.dcache.overall_mshr_hits::total        59325                       # number of overall MSHR hits
system.cpu.dcache.demand_mshr_misses::.cpu.data      1049012                       # number of demand (read+write) MSHR misses
system.cpu.dcache.demand_mshr_misses::total      1049012                       # number of demand (read+write) MSHR misses
system.cpu.dcache.overall_mshr_misses::.cpu.data      1057012                       # number of overall MSHR misses
system.cpu.dcache.overall_mshr_misses::total      1057012                       # number of overall MSHR misses
system.cpu.dcache.demand_mshr_miss_latency::.cpu.data  49734033000                       # number of demand (read+write) MSHR miss cycles
system.cpu.dcache.demand_mshr_miss_latency::total  49734033000                       # number of demand (read+write) MSHR miss cycles
system.cpu.dcache.overall_mshr_miss_latency::.cpu.data  50530450992                       # number of overall MSHR miss cycles
system.cpu.dcache.overall_mshr_miss_latency::total  50530450992                       # number of overall MSHR miss cycles
system.cpu.dcache.demand_mshr_miss_rate::.cpu.data     0.020108                       # mshr miss rate for demand accesses
system.cpu.dcache.demand_mshr_miss_rate::total     0.020108                       # mshr miss rate for demand accesses
system.cpu.dcache.overall_mshr_miss_rate::.cpu.data     0.020258                       # mshr miss rate for overall accesses
system.cpu.dcache.overall_mshr_miss_rate::total     0.020258                       # mshr miss rate for overall accesses
system.cpu.dcache.demand_avg_mshr_miss_latency::.cpu.data 47410.356602                       # average overall mshr miss latency
system.cpu.dcache.demand_avg_mshr_miss_latency::total 47410.356602                       # average overall mshr miss latency
system.cpu.dcache.overall_avg_mshr_miss_latency::.cpu.data 47804.992746                       # average overall mshr miss latency
system.cpu.dcache.overall_avg_mshr_miss_latency::total 47804.992746                       # average overall mshr miss latency
system.cpu.dcache.replacements                1056505                       # number of replacements
system.cpu.dcache.ReadReq_hits::.cpu.data     40521723                       # number of ReadReq hits
system.cpu.dcache.ReadReq_hits::total        40521723                       # number of ReadReq hits
system.cpu.dcache.ReadReq_misses::.cpu.data       668185                       # number of ReadReq misses
system.cpu.dcache.ReadReq_misses::total        668185                       # number of ReadReq misses
system.cpu.dcache.ReadReq_miss_latency::.cpu.data  26164433000                       # number of ReadReq miss cycles
system.cpu.dcache.ReadReq_miss_latency::total  26164433000                       # number of ReadReq miss cycles
system.cpu.dcache.ReadReq_accesses::.cpu.data     41189908                       # number of ReadReq accesses(hits+misses)
system.cpu.dcache.ReadReq_accesses::total     41189908                       # number of ReadReq accesses(hits+misses)
system.cpu.dcache.ReadReq_miss_rate::.cpu.data     0.016222                       # miss rate for ReadReq accesses
system.cpu.dcache.ReadReq_miss_rate::total     0.016222                       # miss rate for ReadReq accesses
system.cpu.dcache.ReadReq_avg_miss_latency::.cpu.data 39157.468366                       # average ReadReq miss latency
system.cpu.dcache.ReadReq_avg_miss_latency::total 39157.468366                       # average ReadReq miss latency
system.cpu.dcache.ReadReq_mshr_hits::.cpu.data         3307                       # number of ReadReq MSHR hits
system.cpu.dcache.ReadReq_mshr_hits::total         3307                       # number of ReadReq MSHR hits
system.cpu.dcache.ReadReq_mshr_misses::.cpu.data       664878                       # number of ReadReq MSHR misses
system.cpu.dcache.ReadReq_mshr_misses::total       664878                       # number of ReadReq MSHR misses
system.cpu.dcache.ReadReq_mshr_miss_latency::.cpu.data  24685793000                       # number of ReadReq MSHR miss cycles
system.cpu.dcache.ReadReq_mshr_miss_latency::total  24685793000                       # number of ReadReq MSHR miss cycles
system.cpu.dcache.ReadReq_mshr_miss_rate::.cpu.data     0.016142                       # mshr miss rate for ReadReq accesses
system.cpu.dcache.ReadReq_mshr_miss_rate::total     0.016142                       # mshr miss rate for ReadReq accesses
system.cpu.dcache.ReadReq_avg_mshr_miss_latency::.cpu.data 37128.304742                       # average ReadReq mshr miss latency
system.cpu.dcache.ReadReq_avg_mshr_miss_latency::total 37128.304742                       # average ReadReq mshr miss latency
system.cpu.dcache.WriteReq_hits::.cpu.data     10538027                       # number of WriteReq hits
system.cpu.dcache.WriteReq_hits::total       10538027                       # number of WriteReq hits
system.cpu.dcache.WriteReq_misses::.cpu.data       440152                       # number of WriteReq misses
system.cpu.dcache.WriteReq_misses::total       440152                       # number of WriteReq misses
system.cpu.dcache.WriteReq_miss_latency::.cpu.data  27483383999                       # number of WriteReq miss cycles
system.cpu.dcache.WriteReq_miss_latency::total  27483383999                       # number of WriteReq miss cycles
system.cpu.dcache.WriteReq_accesses::.cpu.data     10978179                       # number of WriteReq accesses(hits+misses)
system.cpu.dcache.WriteReq_accesses::total     10978179                       # number of WriteReq accesses(hits+misses)
system.cpu.dcache.WriteReq_miss_rate::.cpu.data     0.040093                       # miss rate for WriteReq accesses
system.cpu.dcache.WriteReq_miss_rate::total     0.040093                       # miss rate for WriteReq accesses
system.cpu.dcache.WriteReq_avg_miss_latency::.cpu.data 62440.665949                       # average WriteReq miss latency
system.cpu.dcache.WriteReq_avg_miss_latency::total 62440.665949                       # average WriteReq miss latency
system.cpu.dcache.WriteReq_mshr_hits::.cpu.data        56018                       # number of WriteReq MSHR hits
system.cpu.dcache.WriteReq_mshr_hits::total        56018                       # number of WriteReq MSHR hits
system.cpu.dcache.WriteReq_mshr_misses::.cpu.data       384134                       # number of WriteReq MSHR misses
system.cpu.dcache.WriteReq_mshr_misses::total       384134                       # number of WriteReq MSHR misses
system.cpu.dcache.WriteReq_mshr_miss_latency::.cpu.data  25048240000                       # number of WriteReq MSHR miss cycles
system.cpu.dcache.WriteReq_mshr_miss_latency::total  25048240000                       # number of WriteReq MSHR miss cycles
system.cpu.dcache.WriteReq_mshr_miss_rate::.cpu.data     0.034991                       # mshr miss rate for WriteReq accesses
system.cpu.dcache.WriteReq_mshr_miss_rate::total     0.034991                       # mshr miss rate for WriteReq accesses
system.cpu.dcache.WriteReq_avg_mshr_miss_latency::.cpu.data 65207.037128                       # average WriteReq mshr miss latency
system.cpu.dcache.WriteReq_avg_mshr_miss_latency::total 65207.037128                       # average WriteReq mshr miss latency
system.cpu.dcache.SoftPFReq_hits::.cpu.data          410                       # number of SoftPFReq hits
system.cpu.dcache.SoftPFReq_hits::total           410                       # number of SoftPFReq hits
system.cpu.dcache.SoftPFReq_misses::.cpu.data         8006                       # number of SoftPFReq misses
system.cpu.dcache.SoftPFReq_misses::total         8006                       # number of SoftPFReq misses
system.cpu.dcache.SoftPFReq_accesses::.cpu.data         8416                       # number of SoftPFReq accesses(hits+misses)
system.cpu.dcache.SoftPFReq_accesses::total         8416                       # number of SoftPFReq accesses(hits+misses)
system.cpu.dcache.SoftPFReq_miss_rate::.cpu.data     0.951283                       # miss rate for SoftPFReq accesses
system.cpu.dcache.SoftPFReq_miss_rate::total     0.951283                       # miss rate for SoftPFReq accesses
system.cpu.dcache.SoftPFReq_mshr_misses::.cpu.data         8000                       # number of SoftPFReq MSHR misses
system.cpu.dcache.SoftPFReq_mshr_misses::total         8000                       # number of SoftPFReq MSHR misses
system.cpu.dcache.SoftPFReq_mshr_miss_latency::.cpu.data    796417992                       # number of SoftPFReq MSHR miss cycles
system.cpu.dcache.SoftPFReq_mshr_miss_latency::total    796417992                       # number of SoftPFReq MSHR miss cycles
system.cpu.dcache.SoftPFReq_mshr_miss_rate::.cpu.data     0.950570                       # mshr miss rate for SoftPFReq accesses
system.cpu.dcache.SoftPFReq_mshr_miss_rate::total     0.950570                       # mshr miss rate for SoftPFReq accesses
system.cpu.dcache.SoftPFReq_avg_mshr_miss_latency::.cpu.data 99552.249000                       # average SoftPFReq mshr miss latency
system.cpu.dcache.SoftPFReq_avg_mshr_miss_latency::total 99552.249000                       # average SoftPFReq mshr miss latency
system.cpu.dcache.LoadLockedReq_hits::.cpu.data           33                       # number of LoadLockedReq hits
system.cpu.dcache.LoadLockedReq_hits::total           33                       # number of LoadLockedReq hits
system.cpu.dcache.LoadLockedReq_misses::.cpu.data            5                       # number of LoadLockedReq misses
system.cpu.dcache.LoadLockedReq_misses::total            5                       # number of LoadLockedReq misses
system.cpu.dcache.LoadLockedReq_miss_latency::.cpu.data       558000                       # number of LoadLockedReq miss cycles
system.cpu.dcache.LoadLockedReq_miss_latency::total       558000                       # number of LoadLockedReq miss cycles
system.cpu.dcache.LoadLockedReq_accesses::.cpu.data           38                       # number of LoadLockedReq accesses(hits+misses)
system.cpu.dcache.LoadLockedReq_accesses::total           38                       # number of LoadLockedReq accesses(hits+misses)
system.cpu.dcache.LoadLockedReq_miss_rate::.cpu.data     0.131579                       # miss rate for LoadLockedReq accesses
system.cpu.dcache.LoadLockedReq_miss_rate::total     0.131579                       # miss rate for LoadLockedReq accesses
system.cpu.dcache.LoadLockedReq_avg_miss_latency::.cpu.data       111600                       # average LoadLockedReq miss latency
system.cpu.dcache.LoadLockedReq_avg_miss_latency::total       111600                       # average LoadLockedReq miss latency
system.cpu.dcache.LoadLockedReq_mshr_misses::.cpu.data            5                       # number of LoadLockedReq MSHR misses
system.cpu.dcache.LoadLockedReq_mshr_misses::total            5                       # number of LoadLockedReq MSHR misses
system.cpu.dcache.LoadLockedReq_mshr_miss_latency::.cpu.data       548000                       # number of LoadLockedReq MSHR miss cycles
system.cpu.dcache.LoadLockedReq_mshr_miss_latency::total       548000                       # number of LoadLockedReq MSHR miss cycles
system.cpu.dcache.LoadLockedReq_mshr_miss_rate::.cpu.data     0.131579                       # mshr miss rate for LoadLockedReq accesses
system.cpu.dcache.LoadLockedReq_mshr_miss_rate::total     0.131579                       # mshr miss rate for LoadLockedReq accesses
system.cpu.dcache.LoadLockedReq_avg_mshr_miss_latency::.cpu.data       109600                       # average LoadLockedReq mshr miss latency
system.cpu.dcache.LoadLockedReq_avg_mshr_miss_latency::total       109600                       # average LoadLockedReq mshr miss latency
system.cpu.dcache.StoreCondReq_hits::.cpu.data           38                       # number of StoreCondReq hits
system.cpu.dcache.StoreCondReq_hits::total           38                       # number of StoreCondReq hits
system.cpu.dcache.StoreCondReq_accesses::.cpu.data           38                       # number of StoreCondReq accesses(hits+misses)
system.cpu.dcache.StoreCondReq_accesses::total           38                       # number of StoreCondReq accesses(hits+misses)
system.cpu.dcache.tags.pwrStateResidencyTicks::UNDEFINED 172792976000                       # Cumulative time (in ticks) in various power states
system.cpu.dcache.tags.tagsinuse           507.572084                       # Cycle average of tags in use
system.cpu.dcache.tags.total_refs            52117248                       # Total number of references to valid blocks.
system.cpu.dcache.tags.sampled_refs           1057017                       # Sample count of references to valid blocks.
system.cpu.dcache.tags.avg_refs             49.305970                       # Average number of references to valid blocks.
system.cpu.dcache.tags.warmup_cycle            223000                       # Cycle when the warmup percentage was hit.
system.cpu.dcache.tags.occ_blocks::.cpu.data   507.572084                       # Average occupied blocks per requestor
system.cpu.dcache.tags.occ_percent::.cpu.data     0.991352                       # Average percentage of cache occupancy
system.cpu.dcache.tags.occ_percent::total     0.991352                       # Average percentage of cache occupancy
system.cpu.dcache.tags.occ_task_id_blocks::1024          512                       # Occupied blocks per task id
system.cpu.dcache.tags.age_task_id_blocks_1024::0           56                       # Occupied blocks per task id
system.cpu.dcache.tags.age_task_id_blocks_1024::1          286                       # Occupied blocks per task id
system.cpu.dcache.tags.age_task_id_blocks_1024::2          169                       # Occupied blocks per task id
system.cpu.dcache.tags.age_task_id_blocks_1024::3            1                       # Occupied blocks per task id
system.cpu.dcache.tags.occ_task_id_percent::1024            1                       # Percentage of cache occupancy per task id
system.cpu.dcache.tags.tag_accesses          53233596                       # Number of tag accesses
system.cpu.dcache.tags.data_accesses         53233596                       # Number of data accesses
system.cpu.itb.walker.pwrStateResidencyTicks::UNDEFINED 172792976000                       # Cumulative time (in ticks) in various power states
system.cpu.itb.stage2_mmu.stage2_tlb.walker.pwrStateResidencyTicks::UNDEFINED 172792976000                       # Cumulative time (in ticks) in various power states

---------- End Simulation Statistics   ----------
